  Page 1                                    Tue Feb 02 11:58:12 2021

  ******************************************************************
  *                           E P A N E T                          *
  *                   Hydraulic and Water Quality                  *
  *                   Analysis for Pipe Networks                   *
  *                         Version 2.2                            *
  ******************************************************************
  
  Analysis begun Tue Feb 02 11:58:12 2021

  WARNING: Negative pressures at 0:00:00 hrs.
   
  WARNING: Negative pressures at 0:33:33 hrs.
   
  WARNING: Negative pressures at 0:35:12 hrs.
   
  WARNING: Negative pressures at 3:48:41 hrs.
   
  WARNING: Negative pressures at 3:52:57 hrs.
   
  WARNING: Negative pressures at 3:56:03 hrs.
   
  WARNING: Negative pressures at 4:00:00 hrs.
   
  WARNING: Negative pressures at 4:26:33 hrs.
   
  WARNING: Negative pressures at 4:29:40 hrs.
   
  WARNING: Negative pressures at 5:00:00 hrs.
   
  WARNING: Negative pressures at 5:00:06 hrs.
   
  WARNING: Negative pressures at 5:03:12 hrs.
   
  WARNING: Negative pressures at 5:34:44 hrs.
   
  WARNING: Negative pressures at 5:37:50 hrs.
   
  WARNING: Negative pressures at 6:00:00 hrs.
   
  WARNING: Negative pressures at 6:06:16 hrs.
   
  WARNING: Negative pressures at 6:09:42 hrs.
   
  WARNING: Negative pressures at 6:30:49 hrs.
   
  WARNING: Negative pressures at 6:34:15 hrs.
   
  WARNING: Negative pressures at 6:55:21 hrs.
   
  WARNING: Negative pressures at 6:58:47 hrs.
   
  WARNING: Negative pressures at 7:00:00 hrs.
   
  WARNING: Negative pressures at 7:15:34 hrs.
   
  WARNING: Negative pressures at 7:19:11 hrs.
   
  WARNING: Negative pressures at 7:35:40 hrs.
   
  WARNING: Negative pressures at 7:39:18 hrs.
   
  WARNING: Negative pressures at 7:55:51 hrs.
   
  WARNING: Negative pressures at 7:59:29 hrs.
   
  WARNING: Negative pressures at 8:00:00 hrs.
   
  WARNING: Negative pressures at 8:14:42 hrs.
   
  WARNING: Negative pressures at 8:18:25 hrs.
   
  WARNING: Negative pressures at 8:33:35 hrs.
   
  WARNING: Negative pressures at 8:37:18 hrs.
   
  WARNING: Negative pressures at 8:52:28 hrs.
   
  WARNING: Negative pressures at 8:56:11 hrs.
   
  WARNING: Negative pressures at 9:00:00 hrs.
   
  WARNING: Negative pressures at 9:10:49 hrs.
   
  WARNING: Negative pressures at 9:14:35 hrs.
   
  WARNING: Negative pressures at 9:29:01 hrs.
   
  WARNING: Negative pressures at 9:32:47 hrs.
   
  WARNING: Negative pressures at 9:47:14 hrs.
   
  WARNING: Negative pressures at 9:51:00 hrs.
   
  WARNING: Negative pressures at 10:00:00 hrs.
   
  WARNING: Negative pressures at 10:05:33 hrs.
   
  WARNING: Negative pressures at 10:09:17 hrs.
   
  WARNING: Negative pressures at 10:18:44 hrs.
   
  WARNING: Negative pressures at 10:21:12 hrs.
   
  WARNING: Negative pressures at 10:26:27 hrs.
   
  WARNING: Negative pressures at 10:33:19 hrs.
   
  WARNING: Negative pressures at 10:38:34 hrs.
   
  WARNING: Negative pressures at 10:45:26 hrs.
   
  WARNING: Negative pressures at 10:50:41 hrs.
   
  WARNING: Negative pressures at 10:57:33 hrs.
   
  WARNING: Negative pressures at 11:00:00 hrs.
   
  WARNING: Negative pressures at 11:02:57 hrs.
   
  WARNING: Negative pressures at 11:09:50 hrs.
   
  WARNING: Negative pressures at 11:15:04 hrs.
   
  WARNING: Negative pressures at 11:21:58 hrs.
   
  WARNING: Negative pressures at 11:27:12 hrs.
   
  WARNING: Negative pressures at 11:34:06 hrs.
   
  WARNING: Negative pressures at 11:39:20 hrs.
   
  WARNING: Negative pressures at 11:46:14 hrs.
   
  WARNING: Negative pressures at 11:51:28 hrs.
   
  WARNING: Negative pressures at 11:58:22 hrs.
   
  WARNING: Negative pressures at 12:00:00 hrs.
   
  WARNING: Negative pressures at 12:03:42 hrs.
   
  WARNING: Negative pressures at 12:10:41 hrs.
   
  WARNING: Negative pressures at 12:15:17 hrs.
   
  WARNING: Negative pressures at 12:15:55 hrs.
   
  WARNING: Negative pressures at 12:22:54 hrs.
   
  WARNING: Negative pressures at 12:26:47 hrs.
   
  WARNING: Negative pressures at 12:28:11 hrs.
   
  WARNING: Negative pressures at 12:35:10 hrs.
   
  WARNING: Negative pressures at 12:40:22 hrs.
   
  WARNING: Negative pressures at 12:45:34 hrs.
   
  WARNING: Negative pressures at 12:47:21 hrs.
   
  WARNING: Negative pressures at 12:52:33 hrs.
   
  WARNING: Negative pressures at 12:59:32 hrs.
   
  WARNING: Negative pressures at 13:00:00 hrs.
   
  WARNING: Negative pressures at 13:04:46 hrs.
   
  WARNING: Negative pressures at 13:11:48 hrs.
   
  WARNING: Negative pressures at 13:16:58 hrs.
   
  WARNING: Negative pressures at 13:24:00 hrs.
   
  WARNING: Negative pressures at 13:29:11 hrs.
   
  WARNING: Negative pressures at 13:36:13 hrs.
   
  WARNING: Negative pressures at 13:41:23 hrs.
   
  WARNING: Negative pressures at 13:48:24 hrs.
   
  WARNING: Negative pressures at 13:53:34 hrs.
   
  WARNING: Negative pressures at 14:00:00 hrs.
   
  WARNING: Negative pressures at 14:00:36 hrs.
   
  WARNING: Negative pressures at 14:05:42 hrs.
   
  WARNING: Negative pressures at 14:12:51 hrs.
   
  WARNING: Negative pressures at 14:17:57 hrs.
   
  WARNING: Negative pressures at 14:25:06 hrs.
   
  WARNING: Negative pressures at 14:30:12 hrs.
   
  WARNING: Negative pressures at 14:37:20 hrs.
   
  WARNING: Negative pressures at 14:42:26 hrs.
   
  WARNING: Negative pressures at 14:49:35 hrs.
   
  WARNING: Negative pressures at 14:54:41 hrs.
   
  WARNING: Negative pressures at 14:57:48 hrs.
   
  WARNING: Negative pressures at 15:00:00 hrs.
   
  WARNING: Negative pressures at 15:01:52 hrs.
   
  WARNING: Negative pressures at 15:06:57 hrs.
   
  WARNING: Negative pressures at 15:13:14 hrs.
   
  WARNING: Negative pressures at 15:14:09 hrs.
   
  WARNING: Negative pressures at 15:19:14 hrs.
   
  WARNING: Negative pressures at 15:19:36 hrs.
   
  WARNING: Negative pressures at 15:26:25 hrs.
   
  WARNING: Negative pressures at 15:31:30 hrs.
   
  WARNING: Negative pressures at 15:38:42 hrs.
   
  WARNING: Negative pressures at 15:43:47 hrs.
   
  WARNING: Negative pressures at 15:50:58 hrs.
   
  WARNING: Negative pressures at 15:56:03 hrs.
   
  WARNING: Negative pressures at 16:00:00 hrs.
   
  WARNING: Negative pressures at 16:03:16 hrs.
   
  WARNING: Negative pressures at 16:07:19 hrs.
   
  WARNING: Negative pressures at 16:08:34 hrs.
   
  WARNING: Negative pressures at 16:11:45 hrs.
   
  WARNING: Negative pressures at 16:15:47 hrs.
   
  WARNING: Negative pressures at 16:17:22 hrs.
   
  WARNING: Negative pressures at 16:21:22 hrs.
   
  WARNING: Negative pressures at 16:28:34 hrs.
   
  WARNING: Negative pressures at 16:33:35 hrs.
   
  WARNING: Negative pressures at 16:40:47 hrs.
   
  WARNING: Negative pressures at 16:45:48 hrs.
   
  WARNING: Negative pressures at 16:51:06 hrs.
   
  WARNING: Negative pressures at 16:53:01 hrs.
   
  WARNING: Negative pressures at 16:58:02 hrs.
   
  WARNING: Negative pressures at 17:00:00 hrs.
   
  WARNING: Negative pressures at 17:05:19 hrs.
   
  WARNING: Negative pressures at 17:09:18 hrs.
   
  WARNING: Negative pressures at 17:10:31 hrs.
   
  WARNING: Negative pressures at 17:17:51 hrs.
   
  WARNING: Negative pressures at 17:22:14 hrs.
   
  WARNING: Negative pressures at 17:22:58 hrs.
   
  WARNING: Negative pressures at 17:30:10 hrs.
   
  WARNING: Negative pressures at 17:30:17 hrs.
   
  WARNING: Negative pressures at 17:31:23 hrs.
   
  WARNING: Negative pressures at 17:35:48 hrs.
   
  WARNING: Negative pressures at 17:43:07 hrs.
   
  WARNING: Negative pressures at 17:48:04 hrs.
   
  WARNING: Negative pressures at 17:55:23 hrs.
   
  WARNING: Negative pressures at 18:00:00 hrs.
   
  WARNING: Negative pressures at 18:00:23 hrs.
   
  WARNING: Negative pressures at 18:07:47 hrs.
   
  WARNING: Negative pressures at 18:12:42 hrs.
   
  WARNING: Negative pressures at 18:20:07 hrs.
   
  WARNING: Negative pressures at 18:22:08 hrs.
   
  WARNING: Negative pressures at 18:25:32 hrs.
   
  WARNING: Negative pressures at 18:32:56 hrs.
   
  WARNING: Negative pressures at 18:37:51 hrs.
   
  WARNING: Negative pressures at 18:45:15 hrs.
   
  WARNING: Negative pressures at 18:50:10 hrs.
   
  WARNING: Negative pressures at 18:57:34 hrs.
   
  WARNING: Negative pressures at 19:00:00 hrs.
   
  WARNING: Negative pressures at 19:02:34 hrs.
   
  WARNING: Negative pressures at 19:10:08 hrs.
   
  WARNING: Negative pressures at 19:14:57 hrs.
   
  WARNING: Negative pressures at 19:22:32 hrs.
   
  WARNING: Negative pressures at 19:27:21 hrs.
   
  WARNING: Negative pressures at 19:34:56 hrs.
   
  WARNING: Negative pressures at 19:39:45 hrs.
   
  WARNING: Negative pressures at 19:47:20 hrs.
   
  WARNING: Negative pressures at 19:52:09 hrs.
   
  WARNING: Negative pressures at 19:59:44 hrs.
   
  WARNING: Negative pressures at 20:00:00 hrs.
   
  WARNING: Negative pressures at 20:04:23 hrs.
   
  WARNING: Negative pressures at 20:12:27 hrs.
   
  WARNING: Negative pressures at 20:17:04 hrs.
   
  WARNING: Negative pressures at 20:25:08 hrs.
   
  WARNING: Negative pressures at 20:29:44 hrs.
   
  WARNING: Negative pressures at 20:37:47 hrs.
   
  WARNING: Negative pressures at 20:42:23 hrs.
   
  WARNING: Negative pressures at 20:50:26 hrs.
   
  WARNING: Negative pressures at 20:55:02 hrs.
   
  WARNING: Negative pressures at 21:00:00 hrs.
   
  WARNING: Negative pressures at 21:02:25 hrs.
   
  WARNING: Negative pressures at 21:03:16 hrs.
   
  WARNING: Negative pressures at 21:03:19 hrs.
   
  WARNING: Negative pressures at 21:07:29 hrs.
   
  WARNING: Negative pressures at 21:07:44 hrs.
   
  WARNING: Negative pressures at 21:15:58 hrs.
   
  WARNING: Negative pressures at 21:16:27 hrs.
   
  WARNING: Negative pressures at 21:20:15 hrs.
   
  WARNING: Negative pressures at 21:20:28 hrs.
   
  WARNING: Negative pressures at 21:28:44 hrs.
   
  WARNING: Negative pressures at 21:29:13 hrs.
   
  WARNING: Negative pressures at 21:33:01 hrs.
   
  WARNING: Negative pressures at 21:33:14 hrs.
   
  WARNING: Negative pressures at 21:41:31 hrs.
   
  WARNING: Negative pressures at 21:42:00 hrs.
   
  WARNING: Negative pressures at 21:45:48 hrs.
   
  WARNING: Negative pressures at 21:46:01 hrs.
   
  WARNING: Negative pressures at 21:54:17 hrs.
   
  WARNING: Negative pressures at 21:54:46 hrs.
   
  WARNING: Negative pressures at 21:58:34 hrs.
   
  WARNING: Negative pressures at 21:58:47 hrs.
   
  WARNING: Negative pressures at 22:00:00 hrs.
   
  WARNING: Negative pressures at 22:00:04 hrs.
   
  WARNING: Negative pressures at 22:07:19 hrs.
   
  WARNING: Negative pressures at 22:07:28 hrs.
   
  WARNING: Negative pressures at 22:11:29 hrs.
   
  WARNING: Negative pressures at 22:11:34 hrs.
   
  WARNING: Negative pressures at 22:20:17 hrs.
   
  WARNING: Negative pressures at 22:20:28 hrs.
   
  WARNING: Negative pressures at 22:24:27 hrs.
   
  WARNING: Negative pressures at 22:24:32 hrs.
   
  WARNING: Negative pressures at 22:33:14 hrs.
   
  WARNING: Negative pressures at 22:33:25 hrs.
   
  WARNING: Negative pressures at 22:37:24 hrs.
   
  WARNING: Negative pressures at 22:37:29 hrs.
   
  WARNING: Negative pressures at 22:46:11 hrs.
   
  WARNING: Negative pressures at 22:46:22 hrs.
   
  WARNING: Negative pressures at 22:50:21 hrs.
   
  WARNING: Negative pressures at 22:50:26 hrs.
   
  WARNING: Negative pressures at 22:59:08 hrs.
   
  WARNING: Negative pressures at 22:59:19 hrs.
   
  WARNING: Negative pressures at 23:00:00 hrs.
   
  WARNING: Negative pressures at 23:00:01 hrs.
   
  WARNING: Negative pressures at 23:03:18 hrs.
   
  WARNING: Negative pressures at 23:12:20 hrs.
   
  WARNING: Negative pressures at 23:16:25 hrs.
   
  WARNING: Negative pressures at 23:25:28 hrs.
   
  WARNING: Negative pressures at 23:29:33 hrs.
   
  WARNING: Negative pressures at 23:38:36 hrs.
   
  WARNING: Negative pressures at 23:42:41 hrs.
   
  WARNING: Negative pressures at 23:51:44 hrs.
   
  WARNING: Negative pressures at 23:55:48 hrs.
   
  WARNING: Negative pressures at 24:00:00 hrs.
   
  WARNING: Negative pressures at 24:04:58 hrs.
   
  WARNING: Negative pressures at 24:09:00 hrs.
   
  WARNING: Negative pressures at 24:18:15 hrs.
   
  WARNING: Negative pressures at 24:22:17 hrs.
   
  WARNING: Negative pressures at 24:31:33 hrs.
   
  WARNING: Negative pressures at 24:35:35 hrs.
   
  WARNING: Negative pressures at 24:44:51 hrs.
   
  WARNING: Negative pressures at 24:48:53 hrs.
   
  WARNING: Negative pressures at 24:58:09 hrs.
   
  WARNING: Negative pressures at 25:00:00 hrs.
   
  WARNING: Negative pressures at 25:02:17 hrs.
   
  WARNING: Negative pressures at 25:11:30 hrs.
   
  WARNING: Negative pressures at 25:15:32 hrs.
   
  WARNING: Negative pressures at 25:24:44 hrs.
   
  WARNING: Negative pressures at 25:28:46 hrs.
   
  WARNING: Negative pressures at 25:37:59 hrs.
   
  WARNING: Negative pressures at 25:42:01 hrs.
   
  WARNING: Negative pressures at 25:51:13 hrs.
   
  WARNING: Negative pressures at 25:55:15 hrs.
   
  WARNING: Negative pressures at 26:00:00 hrs.
   
  WARNING: Negative pressures at 26:04:27 hrs.
   
  WARNING: Negative pressures at 26:08:30 hrs.
   
  WARNING: Negative pressures at 26:17:38 hrs.
   
  WARNING: Negative pressures at 26:21:41 hrs.
   
  WARNING: Negative pressures at 26:30:50 hrs.
   
  WARNING: Negative pressures at 26:34:53 hrs.
   
  WARNING: Negative pressures at 26:44:01 hrs.
   
  WARNING: Negative pressures at 26:48:04 hrs.
   
  WARNING: Negative pressures at 26:57:13 hrs.
   
  WARNING: Negative pressures at 27:00:00 hrs.
   
  WARNING: Negative pressures at 27:01:22 hrs.
   
  WARNING: Negative pressures at 27:10:31 hrs.
   
  WARNING: Negative pressures at 27:14:34 hrs.
   
  WARNING: Negative pressures at 27:23:41 hrs.
   
  WARNING: Negative pressures at 27:27:44 hrs.
   
  WARNING: Negative pressures at 27:36:52 hrs.
   
  WARNING: Negative pressures at 27:40:55 hrs.
   
  WARNING: Negative pressures at 27:50:02 hrs.
   
  WARNING: Negative pressures at 27:54:05 hrs.
   
  WARNING: Negative pressures at 28:00:00 hrs.
   
  WARNING: Negative pressures at 28:03:13 hrs.
   
  WARNING: Negative pressures at 28:04:03 hrs.
   
  WARNING: Negative pressures at 28:06:34 hrs.
   
  WARNING: Negative pressures at 28:37:01 hrs.
   
  WARNING: Negative pressures at 28:40:08 hrs.
   
  WARNING: Negative pressures at 29:00:00 hrs.
   
  WARNING: Negative pressures at 29:10:57 hrs.
   
  WARNING: Negative pressures at 29:14:03 hrs.
   
  WARNING: Negative pressures at 29:45:35 hrs.
   
  WARNING: Negative pressures at 29:48:41 hrs.
   
  WARNING: Negative pressures at 29:58:14 hrs.
   
  WARNING: Negative pressures at 30:00:00 hrs.
   
  WARNING: Negative pressures at 30:13:32 hrs.
   
  WARNING: Negative pressures at 30:16:59 hrs.
   
  WARNING: Negative pressures at 30:38:03 hrs.
   
  WARNING: Negative pressures at 30:41:31 hrs.
   
  WARNING: Negative pressures at 31:00:00 hrs.
   
  WARNING: Negative pressures at 31:02:05 hrs.
   
  WARNING: Negative pressures at 31:05:44 hrs.
   
  WARNING: Negative pressures at 31:22:13 hrs.
   
  WARNING: Negative pressures at 31:25:52 hrs.
   
  WARNING: Negative pressures at 31:42:22 hrs.
   
  WARNING: Negative pressures at 31:46:01 hrs.
   
  WARNING: Negative pressures at 32:00:00 hrs.
   
  WARNING: Negative pressures at 32:02:18 hrs.
   
  WARNING: Negative pressures at 32:06:02 hrs.
   
  WARNING: Negative pressures at 32:21:10 hrs.
   
  WARNING: Negative pressures at 32:24:54 hrs.
   
  WARNING: Negative pressures at 32:40:02 hrs.
   
  WARNING: Negative pressures at 32:43:46 hrs.
   
  WARNING: Negative pressures at 32:58:54 hrs.
   
  WARNING: Negative pressures at 33:00:00 hrs.
   
  WARNING: Negative pressures at 33:02:44 hrs.
   
  WARNING: Negative pressures at 33:07:27 hrs.
   
  WARNING: Negative pressures at 33:17:09 hrs.
   
  WARNING: Negative pressures at 33:20:55 hrs.
   
  WARNING: Negative pressures at 33:35:21 hrs.
   
  WARNING: Negative pressures at 33:39:07 hrs.
   
  WARNING: Negative pressures at 33:53:33 hrs.
   
  WARNING: Negative pressures at 33:57:19 hrs.
   
  WARNING: Negative pressures at 34:00:00 hrs.
   
  WARNING: Negative pressures at 34:12:01 hrs.
   
  WARNING: Negative pressures at 34:15:46 hrs.
   
  WARNING: Negative pressures at 34:30:32 hrs.
   
  WARNING: Negative pressures at 34:34:17 hrs.
   
  WARNING: Negative pressures at 34:49:03 hrs.
   
  WARNING: Negative pressures at 34:52:48 hrs.
   
  WARNING: Negative pressures at 35:00:00 hrs.
   
  WARNING: Negative pressures at 35:07:39 hrs.
   
  WARNING: Negative pressures at 35:11:23 hrs.
   
  WARNING: Negative pressures at 35:26:17 hrs.
   
  WARNING: Negative pressures at 35:30:01 hrs.
   
  WARNING: Negative pressures at 35:44:54 hrs.
   
  WARNING: Negative pressures at 35:48:38 hrs.
   
  WARNING: Negative pressures at 36:00:00 hrs.
   
  WARNING: Negative pressures at 36:03:39 hrs.
   
  WARNING: Negative pressures at 36:07:21 hrs.
   
  WARNING: Negative pressures at 36:13:12 hrs.
   
  WARNING: Negative pressures at 36:17:33 hrs.
   
  WARNING: Negative pressures at 36:22:43 hrs.
   
  WARNING: Negative pressures at 36:29:41 hrs.
   
  WARNING: Negative pressures at 36:34:51 hrs.
   
  WARNING: Negative pressures at 36:41:50 hrs.
   
  WARNING: Negative pressures at 36:42:39 hrs.
   
  WARNING: Negative pressures at 36:47:04 hrs.
   
  WARNING: Negative pressures at 36:54:03 hrs.
   
  WARNING: Negative pressures at 36:59:12 hrs.
   
  WARNING: Negative pressures at 37:00:00 hrs.
   
  WARNING: Negative pressures at 37:06:14 hrs.
   
  WARNING: Negative pressures at 37:11:21 hrs.
   
  WARNING: Negative pressures at 37:18:22 hrs.
   
  WARNING: Negative pressures at 37:23:29 hrs.
   
  WARNING: Negative pressures at 37:30:31 hrs.
   
  WARNING: Negative pressures at 37:35:38 hrs.
   
  WARNING: Negative pressures at 37:42:39 hrs.
   
  WARNING: Negative pressures at 37:47:46 hrs.
   
  WARNING: Negative pressures at 37:54:48 hrs.
   
  WARNING: Negative pressures at 37:59:55 hrs.
   
  WARNING: Negative pressures at 38:00:00 hrs.
   
  WARNING: Negative pressures at 38:07:03 hrs.
   
  WARNING: Negative pressures at 38:12:06 hrs.
   
  WARNING: Negative pressures at 38:12:18 hrs.
   
  WARNING: Negative pressures at 38:19:15 hrs.
   
  WARNING: Negative pressures at 38:24:18 hrs.
   
  WARNING: Negative pressures at 38:31:27 hrs.
   
  WARNING: Negative pressures at 38:36:30 hrs.
   
  WARNING: Negative pressures at 38:43:39 hrs.
   
  WARNING: Negative pressures at 38:48:42 hrs.
   
  WARNING: Negative pressures at 38:55:51 hrs.
   
  WARNING: Negative pressures at 39:00:00 hrs.
   
  WARNING: Negative pressures at 39:01:00 hrs.
   
  WARNING: Negative pressures at 39:06:29 hrs.
   
  WARNING: Negative pressures at 39:08:12 hrs.
   
  WARNING: Negative pressures at 39:13:13 hrs.
   
  WARNING: Negative pressures at 39:20:23 hrs.
   
  WARNING: Negative pressures at 39:20:43 hrs.
   
  WARNING: Negative pressures at 39:26:00 hrs.
   
  WARNING: Negative pressures at 39:33:11 hrs.
   
  WARNING: Negative pressures at 39:38:13 hrs.
   
  WARNING: Negative pressures at 39:45:25 hrs.
   
  WARNING: Negative pressures at 39:50:27 hrs.
   
  WARNING: Negative pressures at 39:57:38 hrs.
   
  WARNING: Negative pressures at 40:00:00 hrs.
   
  WARNING: Negative pressures at 40:02:49 hrs.
   
  WARNING: Negative pressures at 40:04:15 hrs.
   
  WARNING: Negative pressures at 40:10:02 hrs.
   
  WARNING: Negative pressures at 40:15:03 hrs.
   
  WARNING: Negative pressures at 40:22:15 hrs.
   
  WARNING: Negative pressures at 40:27:16 hrs.
   
  WARNING: Negative pressures at 40:34:28 hrs.
   
  WARNING: Negative pressures at 40:39:29 hrs.
   
  WARNING: Negative pressures at 40:46:41 hrs.
   
  WARNING: Negative pressures at 40:51:42 hrs.
   
  WARNING: Negative pressures at 40:52:56 hrs.
   
  WARNING: Negative pressures at 40:58:54 hrs.
   
  WARNING: Negative pressures at 41:00:00 hrs.
   
  WARNING: Negative pressures at 41:03:58 hrs.
   
  WARNING: Negative pressures at 41:11:17 hrs.
   
  WARNING: Negative pressures at 41:16:15 hrs.
   
  WARNING: Negative pressures at 41:23:35 hrs.
   
  WARNING: Negative pressures at 41:28:33 hrs.
   
  WARNING: Negative pressures at 41:35:52 hrs.
   
  WARNING: Negative pressures at 41:40:49 hrs.
   
  WARNING: Negative pressures at 41:48:08 hrs.
   
  WARNING: Negative pressures at 41:53:05 hrs.
   
  WARNING: Negative pressures at 41:54:42 hrs.
   
  WARNING: Negative pressures at 41:54:59 hrs.
   
  WARNING: Negative pressures at 42:00:00 hrs.
   
  WARNING: Negative pressures at 42:00:25 hrs.
   
  WARNING: Negative pressures at 42:05:23 hrs.
   
  WARNING: Negative pressures at 42:12:46 hrs.
   
  WARNING: Negative pressures at 42:17:44 hrs.
   
  WARNING: Negative pressures at 42:25:08 hrs.
   
  WARNING: Negative pressures at 42:30:06 hrs.
   
  WARNING: Negative pressures at 42:37:30 hrs.
   
  WARNING: Negative pressures at 42:42:28 hrs.
   
  WARNING: Negative pressures at 42:43:22 hrs.
   
  WARNING: Negative pressures at 42:49:52 hrs.
   
  WARNING: Negative pressures at 42:54:50 hrs.
   
  WARNING: Negative pressures at 43:00:00 hrs.
   
  WARNING: Negative pressures at 43:02:18 hrs.
   
  WARNING: Negative pressures at 43:07:10 hrs.
   
  WARNING: Negative pressures at 43:14:44 hrs.
   
  WARNING: Negative pressures at 43:19:36 hrs.
   
  WARNING: Negative pressures at 43:27:11 hrs.
   
  WARNING: Negative pressures at 43:32:03 hrs.
   
  WARNING: Negative pressures at 43:39:37 hrs.
   
  WARNING: Negative pressures at 43:44:29 hrs.
   
  WARNING: Negative pressures at 43:52:04 hrs.
   
  WARNING: Negative pressures at 43:56:55 hrs.
   
  WARNING: Negative pressures at 44:00:00 hrs.
   
  WARNING: Negative pressures at 44:04:47 hrs.
   
  WARNING: Negative pressures at 44:09:26 hrs.
   
  WARNING: Negative pressures at 44:17:29 hrs.
   
  WARNING: Negative pressures at 44:22:08 hrs.
   
  WARNING: Negative pressures at 44:30:11 hrs.
   
  WARNING: Negative pressures at 44:34:50 hrs.
   
  WARNING: Negative pressures at 44:42:53 hrs.
   
  WARNING: Negative pressures at 44:47:32 hrs.
   
  WARNING: Negative pressures at 44:55:36 hrs.
   
  WARNING: Negative pressures at 45:00:00 hrs.
   
  WARNING: Negative pressures at 45:00:16 hrs.
   
  WARNING: Negative pressures at 45:01:34 hrs.
   
  WARNING: Negative pressures at 45:08:45 hrs.
   
  WARNING: Negative pressures at 45:09:18 hrs.
   
  WARNING: Negative pressures at 45:13:04 hrs.
   
  WARNING: Negative pressures at 45:13:22 hrs.
   
  WARNING: Negative pressures at 45:17:25 hrs.
   
  WARNING: Negative pressures at 45:17:43 hrs.
   
  WARNING: Negative pressures at 45:21:34 hrs.
   
  WARNING: Negative pressures at 45:21:47 hrs.
   
  WARNING: Negative pressures at 45:25:49 hrs.
   
  WARNING: Negative pressures at 45:26:03 hrs.
   
  WARNING: Negative pressures at 45:34:19 hrs.
   
  WARNING: Negative pressures at 45:34:48 hrs.
   
  WARNING: Negative pressures at 45:38:36 hrs.
   
  WARNING: Negative pressures at 45:38:49 hrs.
   
  WARNING: Negative pressures at 45:47:05 hrs.
   
  WARNING: Negative pressures at 45:47:34 hrs.
   
  WARNING: Negative pressures at 45:51:22 hrs.
   
  WARNING: Negative pressures at 45:51:35 hrs.
   
  WARNING: Negative pressures at 45:59:51 hrs.
   
  WARNING: Negative pressures at 46:00:00 hrs.
   
  WARNING: Negative pressures at 46:00:19 hrs.
   
  WARNING: Negative pressures at 46:04:03 hrs.
   
  WARNING: Negative pressures at 46:04:08 hrs.
   
  WARNING: Negative pressures at 46:12:49 hrs.
   
  WARNING: Negative pressures at 46:13:00 hrs.
   
  WARNING: Negative pressures at 46:16:59 hrs.
   
  WARNING: Negative pressures at 46:17:04 hrs.
   
  WARNING: Negative pressures at 46:25:46 hrs.
   
  WARNING: Negative pressures at 46:25:57 hrs.
   
  WARNING: Negative pressures at 46:29:56 hrs.
   
  WARNING: Negative pressures at 46:30:01 hrs.
   
  WARNING: Negative pressures at 46:38:42 hrs.
   
  WARNING: Negative pressures at 46:38:53 hrs.
   
  WARNING: Negative pressures at 46:42:52 hrs.
   
  WARNING: Negative pressures at 46:42:57 hrs.
   
  WARNING: Negative pressures at 46:51:39 hrs.
   
  WARNING: Negative pressures at 46:51:50 hrs.
   
  WARNING: Negative pressures at 46:55:49 hrs.
   
  WARNING: Negative pressures at 46:55:54 hrs.
   
  WARNING: Negative pressures at 47:00:00 hrs.
   
  WARNING: Negative pressures at 47:00:05 hrs.
   
  WARNING: Negative pressures at 47:04:46 hrs.
   
  WARNING: Negative pressures at 47:08:51 hrs.
   
  WARNING: Negative pressures at 47:17:53 hrs.
   
  WARNING: Negative pressures at 47:21:57 hrs.
   
  WARNING: Negative pressures at 47:30:58 hrs.
   
  WARNING: Negative pressures at 47:35:03 hrs.
   
  WARNING: Negative pressures at 47:44:06 hrs.
   
  WARNING: Negative pressures at 47:48:11 hrs.
   
  WARNING: Negative pressures at 47:57:14 hrs.
   
  WARNING: Negative pressures at 48:00:00 hrs.
   
  WARNING: Negative pressures at 48:01:23 hrs.
   
  WARNING: Negative pressures at 48:10:38 hrs.
   
  WARNING: Negative pressures at 48:14:40 hrs.
   
  WARNING: Negative pressures at 48:23:55 hrs.
   
  WARNING: Negative pressures at 48:27:57 hrs.
   
  WARNING: Negative pressures at 48:37:13 hrs.
   
  WARNING: Negative pressures at 48:41:15 hrs.
   
  WARNING: Negative pressures at 48:50:31 hrs.
   
  WARNING: Negative pressures at 48:54:33 hrs.
   
  WARNING: Negative pressures at 49:00:00 hrs.
   
  WARNING: Negative pressures at 49:03:49 hrs.
   
  WARNING: Negative pressures at 49:07:51 hrs.
   
  WARNING: Negative pressures at 49:17:03 hrs.
   
  WARNING: Negative pressures at 49:21:05 hrs.
   
  WARNING: Negative pressures at 49:30:17 hrs.
   
  WARNING: Negative pressures at 49:34:19 hrs.
   
  WARNING: Negative pressures at 49:43:31 hrs.
   
  WARNING: Negative pressures at 49:47:33 hrs.
   
  WARNING: Negative pressures at 49:56:45 hrs.
   
  WARNING: Negative pressures at 50:00:00 hrs.
   
  WARNING: Negative pressures at 50:00:51 hrs.
   
  WARNING: Negative pressures at 50:09:59 hrs.
   
  WARNING: Negative pressures at 50:14:02 hrs.
   
  WARNING: Negative pressures at 50:23:10 hrs.
   
  WARNING: Negative pressures at 50:27:13 hrs.
   
  WARNING: Negative pressures at 50:36:21 hrs.
   
  WARNING: Negative pressures at 50:40:24 hrs.
   
  WARNING: Negative pressures at 50:49:32 hrs.
   
  WARNING: Negative pressures at 50:53:35 hrs.
   
  WARNING: Negative pressures at 51:00:00 hrs.
   
  WARNING: Negative pressures at 51:02:45 hrs.
   
  WARNING: Negative pressures at 51:06:48 hrs.
   
  WARNING: Negative pressures at 51:15:55 hrs.
   
  WARNING: Negative pressures at 51:19:58 hrs.
   
  WARNING: Negative pressures at 51:29:05 hrs.
   
  WARNING: Negative pressures at 51:33:08 hrs.
   
  WARNING: Negative pressures at 51:42:15 hrs.
   
  WARNING: Negative pressures at 51:46:18 hrs.
   
  WARNING: Negative pressures at 51:55:25 hrs.
   
  WARNING: Negative pressures at 51:59:28 hrs.
   
  WARNING: Negative pressures at 52:00:00 hrs.
   
  WARNING: Negative pressures at 52:08:33 hrs.
   
  WARNING: Negative pressures at 52:12:38 hrs.
   
  WARNING: Negative pressures at 52:21:43 hrs.
   
  WARNING: Negative pressures at 52:24:31 hrs.
   
  WARNING: Negative pressures at 52:25:32 hrs.
   
  WARNING: Negative pressures at 52:55:52 hrs.
   
  WARNING: Negative pressures at 52:58:59 hrs.
   
  WARNING: Negative pressures at 53:00:00 hrs.
   
  WARNING: Negative pressures at 53:30:29 hrs.
   
  WARNING: Negative pressures at 53:33:35 hrs.
   
  WARNING: Negative pressures at 54:00:00 hrs.
   
  WARNING: Negative pressures at 54:03:26 hrs.
   
  WARNING: Negative pressures at 54:06:52 hrs.
   
  WARNING: Negative pressures at 54:27:58 hrs.
   
  WARNING: Negative pressures at 54:31:24 hrs.
   
  WARNING: Negative pressures at 54:52:31 hrs.
   
  WARNING: Negative pressures at 54:55:57 hrs.
   
  WARNING: Negative pressures at 55:00:00 hrs.
   
  WARNING: Negative pressures at 55:13:21 hrs.
   
  WARNING: Negative pressures at 55:16:58 hrs.
   
  WARNING: Negative pressures at 55:33:26 hrs.
   
  WARNING: Negative pressures at 55:37:03 hrs.
   
  WARNING: Negative pressures at 55:53:32 hrs.
   
  WARNING: Negative pressures at 55:57:09 hrs.
   
  WARNING: Negative pressures at 56:00:00 hrs.
   
  WARNING: Negative pressures at 56:12:30 hrs.
   
  WARNING: Negative pressures at 56:16:13 hrs.
   
  WARNING: Negative pressures at 56:31:23 hrs.
   
  WARNING: Negative pressures at 56:35:06 hrs.
   
  WARNING: Negative pressures at 56:50:16 hrs.
   
  WARNING: Negative pressures at 56:53:59 hrs.
   
  WARNING: Negative pressures at 57:00:00 hrs.
   
  WARNING: Negative pressures at 57:08:43 hrs.
   
  WARNING: Negative pressures at 57:12:29 hrs.
   
  WARNING: Negative pressures at 57:26:56 hrs.
   
  WARNING: Negative pressures at 57:30:42 hrs.
   
  WARNING: Negative pressures at 57:45:08 hrs.
   
  WARNING: Negative pressures at 57:48:54 hrs.
   
  WARNING: Negative pressures at 58:00:00 hrs.
   
  WARNING: Negative pressures at 58:03:25 hrs.
   
  WARNING: Negative pressures at 58:07:09 hrs.
   
  WARNING: Negative pressures at 58:21:51 hrs.
   
  WARNING: Negative pressures at 58:25:35 hrs.
   
  WARNING: Negative pressures at 58:26:04 hrs.
   
  WARNING: Negative pressures at 58:40:18 hrs.
   
  WARNING: Negative pressures at 58:44:04 hrs.
   
  WARNING: Negative pressures at 58:58:49 hrs.
   
  WARNING: Negative pressures at 59:00:00 hrs.
   
  WARNING: Negative pressures at 59:02:39 hrs.
   
  WARNING: Negative pressures at 59:17:34 hrs.
   
  WARNING: Negative pressures at 59:21:19 hrs.
   
  WARNING: Negative pressures at 59:36:12 hrs.
   
  WARNING: Negative pressures at 59:39:57 hrs.
   
  WARNING: Negative pressures at 59:54:49 hrs.
   
  WARNING: Negative pressures at 59:58:34 hrs.
   
  WARNING: Negative pressures at 60:00:00 hrs.
   
  WARNING: Negative pressures at 60:13:53 hrs.
   
  WARNING: Negative pressures at 60:17:36 hrs.
   
  WARNING: Negative pressures at 60:23:35 hrs.
   
  WARNING: Negative pressures at 60:27:52 hrs.
   
  WARNING: Negative pressures at 60:33:05 hrs.
   
  WARNING: Negative pressures at 60:40:04 hrs.
   
  WARNING: Negative pressures at 60:45:17 hrs.
   
  WARNING: Negative pressures at 60:52:16 hrs.
   
  WARNING: Negative pressures at 60:57:29 hrs.
   
  WARNING: Negative pressures at 61:00:00 hrs.
   
  WARNING: Negative pressures at 61:04:31 hrs.
   
  WARNING: Negative pressures at 61:09:42 hrs.
   
  WARNING: Negative pressures at 61:16:43 hrs.
   
  WARNING: Negative pressures at 61:21:54 hrs.
   
  WARNING: Negative pressures at 61:28:56 hrs.
   
  WARNING: Negative pressures at 61:34:07 hrs.
   
  WARNING: Negative pressures at 61:41:08 hrs.
   
  WARNING: Negative pressures at 61:46:19 hrs.
   
  WARNING: Negative pressures at 61:50:08 hrs.
   
  WARNING: Negative pressures at 61:53:22 hrs.
   
  WARNING: Negative pressures at 61:55:55 hrs.
   
  WARNING: Negative pressures at 61:58:40 hrs.
   
  WARNING: Negative pressures at 62:00:00 hrs.
   
  WARNING: Negative pressures at 62:05:48 hrs.
   
  WARNING: Negative pressures at 62:10:51 hrs.
   
  WARNING: Negative pressures at 62:18:00 hrs.
   
  WARNING: Negative pressures at 62:23:03 hrs.
   
  WARNING: Negative pressures at 62:30:12 hrs.
   
  WARNING: Negative pressures at 62:35:15 hrs.
   
  WARNING: Negative pressures at 62:42:24 hrs.
   
  WARNING: Negative pressures at 62:47:27 hrs.
   
  WARNING: Negative pressures at 62:54:36 hrs.
   
  WARNING: Negative pressures at 62:59:39 hrs.
   
  WARNING: Negative pressures at 63:00:00 hrs.
   
  WARNING: Negative pressures at 63:06:16 hrs.
   
  WARNING: Negative pressures at 63:06:50 hrs.
   
  WARNING: Negative pressures at 63:10:54 hrs.
   
  WARNING: Negative pressures at 63:12:06 hrs.
   
  WARNING: Negative pressures at 63:19:17 hrs.
   
  WARNING: Negative pressures at 63:20:53 hrs.
   
  WARNING: Negative pressures at 63:24:53 hrs.
   
  WARNING: Negative pressures at 63:32:04 hrs.
   
  WARNING: Negative pressures at 63:37:06 hrs.
   
  WARNING: Negative pressures at 63:44:17 hrs.
   
  WARNING: Negative pressures at 63:49:18 hrs.
   
  WARNING: Negative pressures at 63:53:53 hrs.
   
  WARNING: Negative pressures at 63:56:30 hrs.
   
  WARNING: Negative pressures at 64:00:00 hrs.
   
  WARNING: Negative pressures at 64:01:40 hrs.
   
  WARNING: Negative pressures at 64:08:52 hrs.
   
  WARNING: Negative pressures at 64:13:53 hrs.
   
  WARNING: Negative pressures at 64:15:52 hrs.
   
  WARNING: Negative pressures at 64:21:05 hrs.
   
  WARNING: Negative pressures at 64:26:06 hrs.
   
  WARNING: Negative pressures at 64:33:18 hrs.
   
  WARNING: Negative pressures at 64:38:19 hrs.
   
  WARNING: Negative pressures at 64:45:31 hrs.
   
  WARNING: Negative pressures at 64:50:32 hrs.
   
  WARNING: Negative pressures at 64:57:44 hrs.
   
  WARNING: Negative pressures at 64:59:51 hrs.
   
  WARNING: Negative pressures at 65:00:00 hrs.
   
  WARNING: Negative pressures at 65:01:24 hrs.
   
  WARNING: Negative pressures at 65:03:09 hrs.
   
  WARNING: Negative pressures at 65:10:28 hrs.
   
  WARNING: Negative pressures at 65:15:25 hrs.
   
  WARNING: Negative pressures at 65:20:03 hrs.
   
  WARNING: Negative pressures at 65:22:44 hrs.
   
  WARNING: Negative pressures at 65:27:41 hrs.
   
  WARNING: Negative pressures at 65:35:00 hrs.
   
  WARNING: Negative pressures at 65:39:57 hrs.
   
  WARNING: Negative pressures at 65:47:15 hrs.
   
  WARNING: Negative pressures at 65:48:33 hrs.
   
  WARNING: Negative pressures at 65:52:46 hrs.
   
  WARNING: Negative pressures at 66:00:00 hrs.
   
  WARNING: Negative pressures at 66:00:06 hrs.
   
  WARNING: Negative pressures at 66:05:01 hrs.
   
  WARNING: Negative pressures at 66:12:25 hrs.
   
  WARNING: Negative pressures at 66:17:20 hrs.
   
  WARNING: Negative pressures at 66:24:44 hrs.
   
  WARNING: Negative pressures at 66:29:39 hrs.
   
  WARNING: Negative pressures at 66:37:03 hrs.
   
  WARNING: Negative pressures at 66:40:33 hrs.
   
  WARNING: Negative pressures at 66:42:17 hrs.
   
  WARNING: Negative pressures at 66:49:41 hrs.
   
  WARNING: Negative pressures at 66:54:36 hrs.
   
  WARNING: Negative pressures at 67:00:00 hrs.
   
  WARNING: Negative pressures at 67:02:03 hrs.
   
  WARNING: Negative pressures at 67:06:52 hrs.
   
  WARNING: Negative pressures at 67:14:27 hrs.
   
  WARNING: Negative pressures at 67:19:16 hrs.
   
  WARNING: Negative pressures at 67:26:50 hrs.
   
  WARNING: Negative pressures at 67:31:39 hrs.
   
  WARNING: Negative pressures at 67:39:14 hrs.
   
  WARNING: Negative pressures at 67:44:03 hrs.
   
  WARNING: Negative pressures at 67:51:38 hrs.
   
  WARNING: Negative pressures at 67:56:27 hrs.
   
  WARNING: Negative pressures at 68:00:00 hrs.
   
  WARNING: Negative pressures at 68:04:18 hrs.
   
  WARNING: Negative pressures at 68:08:55 hrs.
   
  WARNING: Negative pressures at 68:16:59 hrs.
   
  WARNING: Negative pressures at 68:21:35 hrs.
   
  WARNING: Negative pressures at 68:29:37 hrs.
   
  WARNING: Negative pressures at 68:34:13 hrs.
   
  WARNING: Negative pressures at 68:42:16 hrs.
   
  WARNING: Negative pressures at 68:46:52 hrs.
   
  WARNING: Negative pressures at 68:54:55 hrs.
   
  WARNING: Negative pressures at 68:59:31 hrs.
   
  WARNING: Negative pressures at 69:00:00 hrs.
   
  WARNING: Negative pressures at 69:02:38 hrs.
   
  WARNING: Negative pressures at 69:07:59 hrs.
   
  WARNING: Negative pressures at 69:08:18 hrs.
   
  WARNING: Negative pressures at 69:12:14 hrs.
   
  WARNING: Negative pressures at 69:12:28 hrs.
   
  WARNING: Negative pressures at 69:20:42 hrs.
   
  WARNING: Negative pressures at 69:21:11 hrs.
   
  WARNING: Negative pressures at 69:24:59 hrs.
   
  WARNING: Negative pressures at 69:25:12 hrs.
   
  WARNING: Negative pressures at 69:33:28 hrs.
   
  WARNING: Negative pressures at 69:33:57 hrs.
   
  WARNING: Negative pressures at 69:37:45 hrs.
   
  WARNING: Negative pressures at 69:37:58 hrs.
   
  WARNING: Negative pressures at 69:46:14 hrs.
   
  WARNING: Negative pressures at 69:46:43 hrs.
   
  WARNING: Negative pressures at 69:50:31 hrs.
   
  WARNING: Negative pressures at 69:50:44 hrs.
   
  WARNING: Negative pressures at 69:59:01 hrs.
   
  WARNING: Negative pressures at 69:59:30 hrs.
   
  WARNING: Negative pressures at 70:00:00 hrs.
   
  WARNING: Negative pressures at 70:00:02 hrs.
   
  WARNING: Negative pressures at 70:03:17 hrs.
   
  WARNING: Negative pressures at 70:03:21 hrs.
   
  WARNING: Negative pressures at 70:12:04 hrs.
   
  WARNING: Negative pressures at 70:12:15 hrs.
   
  WARNING: Negative pressures at 70:16:14 hrs.
   
  WARNING: Negative pressures at 70:16:19 hrs.
   
  WARNING: Negative pressures at 70:25:00 hrs.
   
  WARNING: Negative pressures at 70:25:11 hrs.
   
  WARNING: Negative pressures at 70:29:10 hrs.
   
  WARNING: Negative pressures at 70:29:15 hrs.
   
  WARNING: Negative pressures at 70:37:57 hrs.
   
  WARNING: Negative pressures at 70:38:08 hrs.
   
  WARNING: Negative pressures at 70:42:07 hrs.
   
  WARNING: Negative pressures at 70:42:12 hrs.
   
  WARNING: Negative pressures at 70:50:54 hrs.
   
  WARNING: Negative pressures at 70:51:05 hrs.
   
  WARNING: Negative pressures at 70:55:04 hrs.
   
  WARNING: Negative pressures at 70:55:09 hrs.
   
  WARNING: Negative pressures at 71:00:00 hrs.
   
  WARNING: Negative pressures at 71:00:06 hrs.
   
  WARNING: Negative pressures at 71:03:59 hrs.
   
  WARNING: Negative pressures at 71:08:04 hrs.
   
  WARNING: Negative pressures at 71:17:07 hrs.
   
  WARNING: Negative pressures at 71:21:12 hrs.
   
  WARNING: Negative pressures at 71:30:14 hrs.
   
  WARNING: Negative pressures at 71:34:18 hrs.
   
  WARNING: Negative pressures at 71:43:19 hrs.
   
  WARNING: Negative pressures at 71:47:24 hrs.
   
  WARNING: Negative pressures at 71:56:27 hrs.
   
  WARNING: Negative pressures at 72:00:00 hrs.
   
  WARNING: Negative pressures at 72:00:34 hrs.
   
  WARNING: Negative pressures at 72:09:49 hrs.
   
  WARNING: Negative pressures at 72:13:51 hrs.
   
  WARNING: Negative pressures at 72:23:06 hrs.
   
  WARNING: Negative pressures at 72:27:08 hrs.
   
  WARNING: Negative pressures at 72:36:24 hrs.
   
  WARNING: Negative pressures at 72:40:26 hrs.
   
  WARNING: Negative pressures at 72:49:41 hrs.
   
  WARNING: Negative pressures at 72:53:43 hrs.
   
  WARNING: Negative pressures at 73:00:00 hrs.
   
  WARNING: Negative pressures at 73:03:00 hrs.
   
  WARNING: Negative pressures at 73:07:02 hrs.
   
  WARNING: Negative pressures at 73:16:13 hrs.
   
  WARNING: Negative pressures at 73:20:15 hrs.
   
  WARNING: Negative pressures at 73:27:59 hrs.
   
  WARNING: Negative pressures at 73:29:28 hrs.
   
  WARNING: Negative pressures at 73:33:32 hrs.
   
  WARNING: Negative pressures at 73:42:45 hrs.
   
  WARNING: Negative pressures at 73:46:49 hrs.
   
  WARNING: Negative pressures at 73:56:03 hrs.
   
  WARNING: Negative pressures at 74:00:00 hrs.
   
  WARNING: Negative pressures at 74:00:08 hrs.
   
  WARNING: Negative pressures at 74:09:17 hrs.
   
  WARNING: Negative pressures at 74:09:18 hrs.
   
  WARNING: Negative pressures at 74:13:22 hrs.
   
  WARNING: Negative pressures at 74:22:30 hrs.
   
  WARNING: Negative pressures at 74:26:35 hrs.
   
  WARNING: Negative pressures at 74:35:44 hrs.
   
  WARNING: Negative pressures at 74:39:49 hrs.
   
  WARNING: Negative pressures at 74:48:58 hrs.
   
  WARNING: Negative pressures at 74:53:03 hrs.
   
  WARNING: Negative pressures at 75:00:00 hrs.
   
  WARNING: Negative pressures at 75:02:14 hrs.
   
  WARNING: Negative pressures at 75:06:33 hrs.
   
  WARNING: Negative pressures at 75:15:40 hrs.
   
  WARNING: Negative pressures at 75:15:42 hrs.
   
  WARNING: Negative pressures at 75:19:45 hrs.
   
  WARNING: Negative pressures at 75:19:46 hrs.
   
  WARNING: Negative pressures at 75:28:53 hrs.
   
  WARNING: Negative pressures at 75:28:55 hrs.
   
  WARNING: Negative pressures at 75:32:58 hrs.
   
  WARNING: Negative pressures at 75:32:59 hrs.
   
  WARNING: Negative pressures at 75:42:05 hrs.
   
  WARNING: Negative pressures at 75:42:07 hrs.
   
  WARNING: Negative pressures at 75:46:10 hrs.
   
  WARNING: Negative pressures at 75:46:11 hrs.
   
  WARNING: Negative pressures at 75:55:18 hrs.
   
  WARNING: Negative pressures at 75:55:20 hrs.
   
  WARNING: Negative pressures at 75:55:32 hrs.
   
  WARNING: Negative pressures at 75:59:23 hrs.
   
  WARNING: Negative pressures at 76:00:00 hrs.
   
  WARNING: Negative pressures at 76:08:29 hrs.
   
  WARNING: Negative pressures at 76:12:34 hrs.
   
  WARNING: Negative pressures at 76:21:39 hrs.
   
  WARNING: Negative pressures at 76:25:44 hrs.
   
  WARNING: Negative pressures at 76:26:56 hrs.
   
  WARNING: Negative pressures at 76:53:20 hrs.
   
  WARNING: Negative pressures at 76:56:27 hrs.
   
  WARNING: Negative pressures at 77:00:00 hrs.
   
  WARNING: Negative pressures at 77:27:52 hrs.
   
  WARNING: Negative pressures at 77:30:58 hrs.
   
  WARNING: Negative pressures at 78:00:00 hrs.
   
  WARNING: Negative pressures at 78:01:41 hrs.
   
  WARNING: Negative pressures at 78:05:07 hrs.
   
  WARNING: Negative pressures at 78:26:13 hrs.
   
  WARNING: Negative pressures at 78:29:39 hrs.
   
  WARNING: Negative pressures at 78:50:46 hrs.
   
  WARNING: Negative pressures at 78:54:12 hrs.
   
  WARNING: Negative pressures at 79:00:00 hrs.
   
  WARNING: Negative pressures at 79:11:59 hrs.
   
  WARNING: Negative pressures at 79:15:36 hrs.
   
  WARNING: Negative pressures at 79:32:04 hrs.
   
  WARNING: Negative pressures at 79:35:41 hrs.
   
  WARNING: Negative pressures at 79:52:10 hrs.
   
  WARNING: Negative pressures at 79:55:47 hrs.
   
  WARNING: Negative pressures at 80:00:00 hrs.
   
  WARNING: Negative pressures at 80:11:15 hrs.
   
  WARNING: Negative pressures at 80:14:58 hrs.
   
  WARNING: Negative pressures at 80:30:08 hrs.
   
  WARNING: Negative pressures at 80:33:51 hrs.
   
  WARNING: Negative pressures at 80:49:01 hrs.
   
  WARNING: Negative pressures at 80:52:44 hrs.
   
  WARNING: Negative pressures at 81:00:00 hrs.
   
  WARNING: Negative pressures at 81:07:32 hrs.
   
  WARNING: Negative pressures at 81:11:18 hrs.
   
  WARNING: Negative pressures at 81:25:44 hrs.
   
  WARNING: Negative pressures at 81:29:30 hrs.
   
  WARNING: Negative pressures at 81:43:57 hrs.
   
  WARNING: Negative pressures at 81:47:43 hrs.
   
  WARNING: Negative pressures at 82:00:00 hrs.
   
  WARNING: Negative pressures at 82:02:12 hrs.
   
  WARNING: Negative pressures at 82:05:56 hrs.
   
  WARNING: Negative pressures at 82:20:39 hrs.
   
  WARNING: Negative pressures at 82:24:24 hrs.
   
  WARNING: Negative pressures at 82:39:10 hrs.
   
  WARNING: Negative pressures at 82:42:54 hrs.
   
  WARNING: Negative pressures at 82:57:36 hrs.
   
  WARNING: Negative pressures at 83:00:00 hrs.
   
  WARNING: Negative pressures at 83:01:25 hrs.
   
  WARNING: Negative pressures at 83:16:20 hrs.
   
  WARNING: Negative pressures at 83:20:04 hrs.
   
  WARNING: Negative pressures at 83:34:58 hrs.
   
  WARNING: Negative pressures at 83:38:42 hrs.
   
  WARNING: Negative pressures at 83:53:36 hrs.
   
  WARNING: Negative pressures at 83:57:20 hrs.
   
  WARNING: Negative pressures at 84:00:00 hrs.
   
  WARNING: Negative pressures at 84:08:35 hrs.
   
  WARNING: Negative pressures at 84:12:38 hrs.
   
  WARNING: Negative pressures at 84:16:19 hrs.
   
  WARNING: Negative pressures at 84:24:47 hrs.
   
  WARNING: Negative pressures at 84:27:56 hrs.
   
  WARNING: Negative pressures at 84:33:04 hrs.
   
  WARNING: Negative pressures at 84:40:02 hrs.
   
  WARNING: Negative pressures at 84:45:10 hrs.
   
  WARNING: Negative pressures at 84:52:08 hrs.
   
  WARNING: Negative pressures at 84:57:16 hrs.
   
  WARNING: Negative pressures at 85:00:00 hrs.
   
  WARNING: Negative pressures at 85:04:17 hrs.
   
  WARNING: Negative pressures at 85:09:24 hrs.
   
  WARNING: Negative pressures at 85:16:26 hrs.
   
  WARNING: Negative pressures at 85:21:33 hrs.
   
  WARNING: Negative pressures at 85:28:34 hrs.
   
  WARNING: Negative pressures at 85:33:41 hrs.
   
  WARNING: Negative pressures at 85:40:43 hrs.
   
  WARNING: Negative pressures at 85:45:50 hrs.
   
  WARNING: Negative pressures at 85:46:50 hrs.
   
  WARNING: Negative pressures at 85:52:52 hrs.
   
  WARNING: Negative pressures at 85:58:02 hrs.
   
  WARNING: Negative pressures at 86:00:00 hrs.
   
  WARNING: Negative pressures at 86:05:09 hrs.
   
  WARNING: Negative pressures at 86:10:15 hrs.
   
  WARNING: Negative pressures at 86:17:24 hrs.
   
  WARNING: Negative pressures at 86:22:30 hrs.
   
  WARNING: Negative pressures at 86:29:38 hrs.
   
  WARNING: Negative pressures at 86:34:44 hrs.
   
  WARNING: Negative pressures at 86:41:53 hrs.
   
  WARNING: Negative pressures at 86:46:59 hrs.
   
  WARNING: Negative pressures at 86:54:07 hrs.
   
  WARNING: Negative pressures at 86:59:13 hrs.
   
  WARNING: Negative pressures at 87:00:00 hrs.
   
  WARNING: Negative pressures at 87:06:24 hrs.
   
  WARNING: Negative pressures at 87:11:29 hrs.
   
  WARNING: Negative pressures at 87:18:40 hrs.
   
  WARNING: Negative pressures at 87:23:45 hrs.
   
  WARNING: Negative pressures at 87:30:56 hrs.
   
  WARNING: Negative pressures at 87:36:01 hrs.
   
  WARNING: Negative pressures at 87:36:33 hrs.
   
  WARNING: Negative pressures at 87:43:13 hrs.
   
  WARNING: Negative pressures at 87:48:18 hrs.
   
  WARNING: Negative pressures at 87:55:29 hrs.
   
  WARNING: Negative pressures at 88:00:00 hrs.
   
  WARNING: Negative pressures at 88:00:38 hrs.
   
  WARNING: Negative pressures at 88:07:50 hrs.
   
  WARNING: Negative pressures at 88:12:54 hrs.
   
  WARNING: Negative pressures at 88:20:05 hrs.
   
  WARNING: Negative pressures at 88:23:28 hrs.
   
  WARNING: Negative pressures at 88:25:29 hrs.
   
  WARNING: Negative pressures at 88:32:40 hrs.
   
  WARNING: Negative pressures at 88:37:44 hrs.
   
  WARNING: Negative pressures at 88:37:49 hrs.
   
  WARNING: Negative pressures at 88:44:56 hrs.
   
  WARNING: Negative pressures at 88:50:01 hrs.
   
  WARNING: Negative pressures at 88:57:14 hrs.
   
  WARNING: Negative pressures at 89:00:00 hrs.
   
  WARNING: Negative pressures at 89:02:26 hrs.
   
  WARNING: Negative pressures at 89:09:44 hrs.
   
  WARNING: Negative pressures at 89:14:44 hrs.
   
  WARNING: Negative pressures at 89:22:02 hrs.
   
  WARNING: Negative pressures at 89:27:02 hrs.
   
  WARNING: Negative pressures at 89:34:21 hrs.
   
  WARNING: Negative pressures at 89:34:28 hrs.
   
  WARNING: Negative pressures at 89:39:49 hrs.
   
  WARNING: Negative pressures at 89:47:09 hrs.
   
  WARNING: Negative pressures at 89:51:15 hrs.
   
  WARNING: Negative pressures at 89:52:15 hrs.
   
  WARNING: Negative pressures at 89:59:34 hrs.
   
  WARNING: Negative pressures at 90:00:00 hrs.
   
  WARNING: Negative pressures at 90:04:32 hrs.
   
  WARNING: Negative pressures at 90:11:56 hrs.
   
  WARNING: Negative pressures at 90:16:51 hrs.
   
  WARNING: Negative pressures at 90:24:15 hrs.
   
  WARNING: Negative pressures at 90:29:10 hrs.
   
  WARNING: Negative pressures at 90:34:41 hrs.
   
  WARNING: Negative pressures at 90:36:35 hrs.
   
  WARNING: Negative pressures at 90:41:30 hrs.
   
  WARNING: Negative pressures at 90:48:54 hrs.
   
  WARNING: Negative pressures at 90:53:49 hrs.
   
  WARNING: Negative pressures at 90:59:10 hrs.
   
  WARNING: Negative pressures at 91:00:00 hrs.
   
  WARNING: Negative pressures at 91:01:16 hrs.
   
  WARNING: Negative pressures at 91:06:05 hrs.
   
  WARNING: Negative pressures at 91:13:39 hrs.
   
  WARNING: Negative pressures at 91:18:28 hrs.
   
  WARNING: Negative pressures at 91:26:02 hrs.
   
  WARNING: Negative pressures at 91:30:51 hrs.
   
  WARNING: Negative pressures at 91:38:26 hrs.
   
  WARNING: Negative pressures at 91:43:15 hrs.
   
  WARNING: Negative pressures at 91:50:50 hrs.
   
  WARNING: Negative pressures at 91:55:39 hrs.
   
  WARNING: Negative pressures at 92:00:00 hrs.
   
  WARNING: Negative pressures at 92:03:27 hrs.
   
  WARNING: Negative pressures at 92:08:03 hrs.
   
  WARNING: Negative pressures at 92:16:05 hrs.
   
  WARNING: Negative pressures at 92:20:41 hrs.
   
  WARNING: Negative pressures at 92:28:44 hrs.
   
  WARNING: Negative pressures at 92:33:21 hrs.
   
  WARNING: Negative pressures at 92:41:25 hrs.
   
  WARNING: Negative pressures at 92:46:01 hrs.
   
  WARNING: Negative pressures at 92:54:04 hrs.
   
  WARNING: Negative pressures at 92:58:40 hrs.
   
  WARNING: Negative pressures at 93:00:00 hrs.
   
  WARNING: Negative pressures at 93:02:07 hrs.
   
  WARNING: Negative pressures at 93:07:06 hrs.
   
  WARNING: Negative pressures at 93:07:23 hrs.
   
  WARNING: Negative pressures at 93:11:21 hrs.
   
  WARNING: Negative pressures at 93:11:35 hrs.
   
  WARNING: Negative pressures at 93:19:49 hrs.
   
  WARNING: Negative pressures at 93:20:18 hrs.
   
  WARNING: Negative pressures at 93:24:06 hrs.
   
  WARNING: Negative pressures at 93:24:19 hrs.
   
  WARNING: Negative pressures at 93:32:35 hrs.
   
  WARNING: Negative pressures at 93:33:04 hrs.
   
  WARNING: Negative pressures at 93:36:52 hrs.
   
  WARNING: Negative pressures at 93:37:05 hrs.
   
  WARNING: Negative pressures at 93:45:21 hrs.
   
  WARNING: Negative pressures at 93:45:50 hrs.
   
  WARNING: Negative pressures at 93:49:38 hrs.
   
  WARNING: Negative pressures at 93:49:51 hrs.
   
  WARNING: Negative pressures at 93:58:08 hrs.
   
  WARNING: Negative pressures at 93:58:37 hrs.
   
  WARNING: Negative pressures at 94:00:00 hrs.
   
  WARNING: Negative pressures at 94:00:05 hrs.
   
  WARNING: Negative pressures at 94:02:27 hrs.
   
  WARNING: Negative pressures at 94:02:30 hrs.
   
  WARNING: Negative pressures at 94:11:12 hrs.
   
  WARNING: Negative pressures at 94:11:23 hrs.
   
  WARNING: Negative pressures at 94:15:22 hrs.
   
  WARNING: Negative pressures at 94:15:27 hrs.
   
  WARNING: Negative pressures at 94:24:09 hrs.
   
  WARNING: Negative pressures at 94:24:20 hrs.
   
  WARNING: Negative pressures at 94:28:19 hrs.
   
  WARNING: Negative pressures at 94:28:24 hrs.
   
  WARNING: Negative pressures at 94:37:06 hrs.
   
  WARNING: Negative pressures at 94:37:17 hrs.
   
  WARNING: Negative pressures at 94:41:16 hrs.
   
  WARNING: Negative pressures at 94:41:21 hrs.
   
  WARNING: Negative pressures at 94:50:03 hrs.
   
  WARNING: Negative pressures at 94:50:14 hrs.
   
  WARNING: Negative pressures at 94:54:13 hrs.
   
  WARNING: Negative pressures at 94:54:18 hrs.
   
  WARNING: Negative pressures at 95:00:00 hrs.
   
  WARNING: Negative pressures at 95:00:07 hrs.
   
  WARNING: Negative pressures at 95:03:06 hrs.
   
  WARNING: Negative pressures at 95:07:11 hrs.
   
  WARNING: Negative pressures at 95:16:14 hrs.
   
  WARNING: Negative pressures at 95:20:19 hrs.
   
  WARNING: Negative pressures at 95:29:22 hrs.
   
  WARNING: Negative pressures at 95:33:27 hrs.
   
  WARNING: Negative pressures at 95:42:29 hrs.
   
  WARNING: Negative pressures at 95:46:33 hrs.
   
  WARNING: Negative pressures at 95:55:34 hrs.
   
  WARNING: Negative pressures at 95:59:39 hrs.
   
  WARNING: Negative pressures at 96:00:00 hrs.
   
  WARNING: Negative pressures at 96:08:54 hrs.
   
  WARNING: Negative pressures at 96:12:56 hrs.
   
  WARNING: Negative pressures at 96:22:12 hrs.
   
  WARNING: Negative pressures at 96:26:14 hrs.
   
  WARNING: Negative pressures at 96:35:29 hrs.
   
  WARNING: Negative pressures at 96:39:31 hrs.
   
  WARNING: Negative pressures at 96:48:47 hrs.
   
  WARNING: Negative pressures at 96:52:49 hrs.
   
  WARNING: Negative pressures at 97:00:00 hrs.
   
  WARNING: Negative pressures at 97:02:05 hrs.
   
  WARNING: Negative pressures at 97:06:07 hrs.
   
  WARNING: Negative pressures at 97:15:19 hrs.
   
  WARNING: Negative pressures at 97:19:21 hrs.
   
  WARNING: Negative pressures at 97:28:33 hrs.
   
  WARNING: Negative pressures at 97:32:35 hrs.
   
  WARNING: Negative pressures at 97:41:47 hrs.
   
  WARNING: Negative pressures at 97:45:49 hrs.
   
  WARNING: Negative pressures at 97:55:01 hrs.
   
  WARNING: Negative pressures at 97:59:03 hrs.
   
  WARNING: Negative pressures at 98:00:00 hrs.
   
  WARNING: Negative pressures at 98:08:12 hrs.
   
  WARNING: Negative pressures at 98:12:15 hrs.
   
  WARNING: Negative pressures at 98:21:23 hrs.
   
  WARNING: Negative pressures at 98:25:26 hrs.
   
  WARNING: Negative pressures at 98:34:34 hrs.
   
  WARNING: Negative pressures at 98:38:37 hrs.
   
  WARNING: Negative pressures at 98:47:45 hrs.
   
  WARNING: Negative pressures at 98:51:48 hrs.
   
  WARNING: Negative pressures at 99:00:00 hrs.
   
  WARNING: Negative pressures at 99:00:57 hrs.
   
  WARNING: Negative pressures at 99:05:00 hrs.
   
  WARNING: Negative pressures at 99:14:07 hrs.
   
  WARNING: Negative pressures at 99:18:10 hrs.
   
  WARNING: Negative pressures at 99:27:17 hrs.
   
  WARNING: Negative pressures at 99:31:20 hrs.
   
  WARNING: Negative pressures at 99:40:27 hrs.
   
  WARNING: Negative pressures at 99:44:30 hrs.
   
  WARNING: Negative pressures at 99:53:37 hrs.
   
  WARNING: Negative pressures at 99:57:40 hrs.
   
  WARNING: Negative pressures at 100:00:00 hrs.
   
  WARNING: Negative pressures at 100:06:46 hrs.
   
  WARNING: Negative pressures at 100:10:51 hrs.
   
  WARNING: Negative pressures at 100:19:56 hrs.
   
  WARNING: Negative pressures at 100:24:01 hrs.
   
  WARNING: Negative pressures at 100:27:12 hrs.
   
  WARNING: Negative pressures at 100:46:59 hrs.
   
  WARNING: Negative pressures at 100:50:06 hrs.
   
  WARNING: Negative pressures at 101:00:00 hrs.
   
  WARNING: Negative pressures at 101:21:17 hrs.
   
  WARNING: Negative pressures at 101:24:23 hrs.
   
  WARNING: Negative pressures at 101:55:55 hrs.
   
  WARNING: Negative pressures at 101:59:01 hrs.
   
  WARNING: Negative pressures at 102:00:00 hrs.
   
  WARNING: Negative pressures at 102:20:28 hrs.
   
  WARNING: Negative pressures at 102:23:54 hrs.
   
  WARNING: Negative pressures at 102:44:59 hrs.
   
  WARNING: Negative pressures at 102:48:25 hrs.
   
  WARNING: Negative pressures at 103:00:00 hrs.
   
  WARNING: Negative pressures at 103:07:27 hrs.
   
  WARNING: Negative pressures at 103:11:04 hrs.
   
  WARNING: Negative pressures at 103:27:32 hrs.
   
  WARNING: Negative pressures at 103:31:09 hrs.
   
  WARNING: Negative pressures at 103:47:37 hrs.
   
  WARNING: Negative pressures at 103:49:27 hrs.
   
  WARNING: Negative pressures at 103:51:20 hrs.
   
  WARNING: Negative pressures at 104:00:00 hrs.
   
  WARNING: Negative pressures at 104:07:12 hrs.
   
  WARNING: Negative pressures at 104:10:56 hrs.
   
  WARNING: Negative pressures at 104:26:04 hrs.
   
  WARNING: Negative pressures at 104:29:48 hrs.
   
  WARNING: Negative pressures at 104:44:56 hrs.
   
  WARNING: Negative pressures at 104:48:40 hrs.
   
  WARNING: Negative pressures at 105:00:00 hrs.
   
  WARNING: Negative pressures at 105:03:37 hrs.
   
  WARNING: Negative pressures at 105:07:24 hrs.
   
  WARNING: Negative pressures at 105:21:49 hrs.
   
  WARNING: Negative pressures at 105:25:36 hrs.
   
  WARNING: Negative pressures at 105:40:01 hrs.
   
  WARNING: Negative pressures at 105:43:48 hrs.
   
  WARNING: Negative pressures at 105:58:13 hrs.
   
  WARNING: Negative pressures at 106:00:00 hrs.
   
  WARNING: Negative pressures at 106:02:04 hrs.
   
  WARNING: Negative pressures at 106:16:46 hrs.
   
  WARNING: Negative pressures at 106:20:32 hrs.
   
  WARNING: Negative pressures at 106:35:17 hrs.
   
  WARNING: Negative pressures at 106:39:03 hrs.
   
  WARNING: Negative pressures at 106:53:48 hrs.
   
  WARNING: Negative pressures at 106:57:34 hrs.
   
  WARNING: Negative pressures at 107:00:00 hrs.
   
  WARNING: Negative pressures at 107:12:26 hrs.
   
  WARNING: Negative pressures at 107:14:53 hrs.
   
  WARNING: Negative pressures at 107:16:15 hrs.
   
  WARNING: Negative pressures at 107:31:07 hrs.
   
  WARNING: Negative pressures at 107:34:51 hrs.
   
  WARNING: Negative pressures at 107:49:45 hrs.
   
  WARNING: Negative pressures at 107:53:29 hrs.
   
  WARNING: Negative pressures at 108:00:00 hrs.
   
  WARNING: Negative pressures at 108:08:39 hrs.
   
  WARNING: Negative pressures at 108:12:21 hrs.
   
  WARNING: Negative pressures at 108:24:55 hrs.
   
  WARNING: Negative pressures at 108:26:12 hrs.
   
  WARNING: Negative pressures at 108:31:22 hrs.
   
  WARNING: Negative pressures at 108:38:21 hrs.
   
  WARNING: Negative pressures at 108:43:31 hrs.
   
  WARNING: Negative pressures at 108:50:29 hrs.
   
  WARNING: Negative pressures at 108:55:39 hrs.
   
  WARNING: Negative pressures at 109:00:00 hrs.
   
  WARNING: Negative pressures at 109:02:40 hrs.
   
  WARNING: Negative pressures at 109:07:49 hrs.
   
  WARNING: Negative pressures at 109:14:51 hrs.
   
  WARNING: Negative pressures at 109:20:00 hrs.
   
  WARNING: Negative pressures at 109:27:02 hrs.
   
  WARNING: Negative pressures at 109:30:30 hrs.
   
  WARNING: Negative pressures at 109:32:35 hrs.
   
  WARNING: Negative pressures at 109:39:37 hrs.
   
  WARNING: Negative pressures at 109:43:09 hrs.
   
  WARNING: Negative pressures at 109:45:09 hrs.
   
  WARNING: Negative pressures at 109:52:10 hrs.
   
  WARNING: Negative pressures at 109:55:18 hrs.
   
  WARNING: Negative pressures at 109:57:46 hrs.
   
  WARNING: Negative pressures at 110:00:00 hrs.
   
  WARNING: Negative pressures at 110:01:49 hrs.
   
  WARNING: Negative pressures at 110:04:54 hrs.
   
  WARNING: Negative pressures at 110:09:57 hrs.
   
  WARNING: Negative pressures at 110:13:21 hrs.
   
  WARNING: Negative pressures at 110:17:07 hrs.
   
  WARNING: Negative pressures at 110:22:10 hrs.
   
  WARNING: Negative pressures at 110:29:19 hrs.
   
  WARNING: Negative pressures at 110:34:22 hrs.
   
  WARNING: Negative pressures at 110:41:31 hrs.
   
  WARNING: Negative pressures at 110:42:36 hrs.
   
  WARNING: Negative pressures at 110:47:10 hrs.
   
  WARNING: Negative pressures at 110:54:18 hrs.
   
  WARNING: Negative pressures at 110:59:21 hrs.
   
  WARNING: Negative pressures at 111:00:00 hrs.
   
  WARNING: Negative pressures at 111:06:33 hrs.
   
  WARNING: Negative pressures at 111:11:35 hrs.
   
  WARNING: Negative pressures at 111:18:46 hrs.
   
  WARNING: Negative pressures at 111:19:15 hrs.
   
  WARNING: Negative pressures at 111:24:24 hrs.
   
  WARNING: Negative pressures at 111:31:36 hrs.
   
  WARNING: Negative pressures at 111:36:38 hrs.
   
  WARNING: Negative pressures at 111:43:49 hrs.
   
  WARNING: Negative pressures at 111:48:50 hrs.
   
  WARNING: Negative pressures at 111:56:01 hrs.
   
  WARNING: Negative pressures at 112:00:00 hrs.
   
  WARNING: Negative pressures at 112:01:09 hrs.
   
  WARNING: Negative pressures at 112:01:37 hrs.
   
  WARNING: Negative pressures at 112:08:21 hrs.
   
  WARNING: Negative pressures at 112:13:22 hrs.
   
  WARNING: Negative pressures at 112:20:34 hrs.
   
  WARNING: Negative pressures at 112:25:35 hrs.
   
  WARNING: Negative pressures at 112:32:46 hrs.
   
  WARNING: Negative pressures at 112:37:47 hrs.
   
  WARNING: Negative pressures at 112:44:59 hrs.
   
  WARNING: Negative pressures at 112:50:00 hrs.
   
  WARNING: Negative pressures at 112:57:12 hrs.
   
  WARNING: Negative pressures at 112:58:18 hrs.
   
  WARNING: Negative pressures at 113:00:00 hrs.
   
  WARNING: Negative pressures at 113:02:34 hrs.
   
  WARNING: Negative pressures at 113:09:53 hrs.
   
  WARNING: Negative pressures at 113:14:50 hrs.
   
  WARNING: Negative pressures at 113:16:08 hrs.
   
  WARNING: Negative pressures at 113:22:09 hrs.
   
  WARNING: Negative pressures at 113:27:06 hrs.
   
  WARNING: Negative pressures at 113:34:24 hrs.
   
  WARNING: Negative pressures at 113:39:21 hrs.
   
  WARNING: Negative pressures at 113:46:40 hrs.
   
  WARNING: Negative pressures at 113:51:38 hrs.
   
  WARNING: Negative pressures at 113:58:58 hrs.
   
  WARNING: Negative pressures at 114:00:00 hrs.
   
  WARNING: Negative pressures at 114:03:59 hrs.
   
  WARNING: Negative pressures at 114:11:22 hrs.
   
  WARNING: Negative pressures at 114:16:17 hrs.
   
  WARNING: Negative pressures at 114:23:41 hrs.
   
  WARNING: Negative pressures at 114:24:10 hrs.
   
  WARNING: Negative pressures at 114:29:08 hrs.
   
  WARNING: Negative pressures at 114:36:31 hrs.
   
  WARNING: Negative pressures at 114:41:26 hrs.
   
  WARNING: Negative pressures at 114:48:50 hrs.
   
  WARNING: Negative pressures at 114:53:45 hrs.
   
  WARNING: Negative pressures at 115:00:00 hrs.
   
  WARNING: Negative pressures at 115:01:12 hrs.
   
  WARNING: Negative pressures at 115:06:01 hrs.
   
  WARNING: Negative pressures at 115:13:35 hrs.
   
  WARNING: Negative pressures at 115:18:24 hrs.
   
  WARNING: Negative pressures at 115:25:58 hrs.
   
  WARNING: Negative pressures at 115:30:47 hrs.
   
  WARNING: Negative pressures at 115:38:22 hrs.
   
  WARNING: Negative pressures at 115:43:11 hrs.
   
  WARNING: Negative pressures at 115:50:46 hrs.
   
  WARNING: Negative pressures at 115:55:35 hrs.
   
  WARNING: Negative pressures at 116:00:00 hrs.
   
  WARNING: Negative pressures at 116:03:23 hrs.
   
  WARNING: Negative pressures at 116:08:00 hrs.
   
  WARNING: Negative pressures at 116:16:04 hrs.
   
  WARNING: Negative pressures at 116:20:41 hrs.
   
  WARNING: Negative pressures at 116:28:45 hrs.
   
  WARNING: Negative pressures at 116:33:21 hrs.
   
  WARNING: Negative pressures at 116:39:41 hrs.
   
  WARNING: Negative pressures at 116:41:25 hrs.
   
  WARNING: Negative pressures at 116:46:04 hrs.
   
  WARNING: Negative pressures at 116:54:07 hrs.
   
  WARNING: Negative pressures at 116:58:46 hrs.
   
  WARNING: Negative pressures at 117:00:00 hrs.
   
  WARNING: Negative pressures at 117:01:28 hrs.
   
  WARNING: Negative pressures at 117:07:12 hrs.
   
  WARNING: Negative pressures at 117:07:39 hrs.
   
  WARNING: Negative pressures at 117:11:30 hrs.
   
  WARNING: Negative pressures at 117:11:48 hrs.
   
  WARNING: Negative pressures at 117:19:58 hrs.
   
  WARNING: Negative pressures at 117:20:36 hrs.
   
  WARNING: Negative pressures at 117:24:17 hrs.
   
  WARNING: Negative pressures at 117:24:34 hrs.
   
  WARNING: Negative pressures at 117:32:45 hrs.
   
  WARNING: Negative pressures at 117:33:23 hrs.
   
  WARNING: Negative pressures at 117:37:05 hrs.
   
  WARNING: Negative pressures at 117:37:22 hrs.
   
  WARNING: Negative pressures at 117:45:34 hrs.
   
  WARNING: Negative pressures at 117:46:12 hrs.
   
  WARNING: Negative pressures at 117:49:53 hrs.
   
  WARNING: Negative pressures at 117:50:10 hrs.
   
  WARNING: Negative pressures at 117:58:21 hrs.
   
  WARNING: Negative pressures at 117:58:59 hrs.
   
  WARNING: Negative pressures at 118:00:00 hrs.
   
  WARNING: Negative pressures at 118:00:05 hrs.
   
  WARNING: Negative pressures at 118:02:42 hrs.
   
  WARNING: Negative pressures at 118:02:48 hrs.
   
  WARNING: Negative pressures at 118:11:29 hrs.
   
  WARNING: Negative pressures at 118:11:49 hrs.
   
  WARNING: Negative pressures at 118:15:42 hrs.
   
  WARNING: Negative pressures at 118:15:51 hrs.
   
  WARNING: Negative pressures at 118:24:29 hrs.
   
  WARNING: Negative pressures at 118:24:49 hrs.
   
  WARNING: Negative pressures at 118:28:42 hrs.
   
  WARNING: Negative pressures at 118:28:51 hrs.
   
  WARNING: Negative pressures at 118:37:29 hrs.
   
  WARNING: Negative pressures at 118:37:49 hrs.
   
  WARNING: Negative pressures at 118:41:42 hrs.
   
  WARNING: Negative pressures at 118:41:51 hrs.
   
  WARNING: Negative pressures at 118:50:29 hrs.
   
  WARNING: Negative pressures at 118:50:49 hrs.
   
  WARNING: Negative pressures at 118:54:42 hrs.
   
  WARNING: Negative pressures at 118:54:51 hrs.
   
  WARNING: Negative pressures at 119:00:00 hrs.
   
  WARNING: Negative pressures at 119:00:12 hrs.
   
  WARNING: Negative pressures at 119:03:37 hrs.
   
  WARNING: Negative pressures at 119:03:39 hrs.
   
  WARNING: Negative pressures at 119:07:43 hrs.
   
  WARNING: Negative pressures at 119:07:45 hrs.
   
  WARNING: Negative pressures at 119:11:30 hrs.
   
  WARNING: Negative pressures at 119:11:32 hrs.
   
  WARNING: Negative pressures at 119:16:46 hrs.
   
  WARNING: Negative pressures at 119:20:51 hrs.
   
  WARNING: Negative pressures at 119:29:53 hrs.
   
  WARNING: Negative pressures at 119:33:57 hrs.
   
  WARNING: Negative pressures at 119:42:58 hrs.
   
  WARNING: Negative pressures at 119:47:03 hrs.
   
  WARNING: Negative pressures at 119:56:06 hrs.
   
  WARNING: Negative pressures at 120:00:00 hrs.
   
  WARNING: Negative pressures at 120:00:11 hrs.
   
  WARNING: Negative pressures at 120:09:25 hrs.
   
  WARNING: Negative pressures at 120:13:27 hrs.
   
  WARNING: Negative pressures at 120:22:42 hrs.
   
  WARNING: Negative pressures at 120:26:44 hrs.
   
  WARNING: Negative pressures at 120:35:59 hrs.
   
  WARNING: Negative pressures at 120:40:01 hrs.
   
  WARNING: Negative pressures at 120:49:17 hrs.
   
  WARNING: Negative pressures at 120:53:19 hrs.
   
  WARNING: Negative pressures at 121:00:00 hrs.
   
  WARNING: Negative pressures at 121:02:35 hrs.
   
  WARNING: Negative pressures at 121:06:37 hrs.
   
  WARNING: Negative pressures at 121:15:49 hrs.
   
  WARNING: Negative pressures at 121:19:51 hrs.
   
  WARNING: Negative pressures at 121:29:03 hrs.
   
  WARNING: Negative pressures at 121:33:05 hrs.
   
  WARNING: Negative pressures at 121:42:17 hrs.
   
  WARNING: Negative pressures at 121:46:19 hrs.
   
  WARNING: Negative pressures at 121:55:32 hrs.
   
  WARNING: Negative pressures at 121:59:34 hrs.
   
  WARNING: Negative pressures at 122:00:00 hrs.
   
  WARNING: Negative pressures at 122:08:42 hrs.
   
  WARNING: Negative pressures at 122:12:45 hrs.
   
  WARNING: Negative pressures at 122:21:53 hrs.
   
  WARNING: Negative pressures at 122:25:56 hrs.
   
  WARNING: Negative pressures at 122:35:04 hrs.
   
  WARNING: Negative pressures at 122:39:07 hrs.
   
  WARNING: Negative pressures at 122:48:15 hrs.
   
  WARNING: Negative pressures at 122:52:18 hrs.
   
  WARNING: Negative pressures at 123:00:00 hrs.
   
  WARNING: Negative pressures at 123:01:27 hrs.
   
  WARNING: Negative pressures at 123:05:30 hrs.
   
  WARNING: Negative pressures at 123:14:37 hrs.
   
  WARNING: Negative pressures at 123:18:40 hrs.
   
  WARNING: Negative pressures at 123:27:47 hrs.
   
  WARNING: Negative pressures at 123:31:50 hrs.
   
  WARNING: Negative pressures at 123:40:57 hrs.
   
  WARNING: Negative pressures at 123:45:00 hrs.
   
  WARNING: Negative pressures at 123:54:07 hrs.
   
  WARNING: Negative pressures at 123:58:10 hrs.
   
  WARNING: Negative pressures at 124:00:00 hrs.
   
  WARNING: Negative pressures at 124:07:16 hrs.
   
  WARNING: Negative pressures at 124:11:21 hrs.
   
  WARNING: Negative pressures at 124:20:26 hrs.
   
  WARNING: Negative pressures at 124:24:31 hrs.
   
  WARNING: Negative pressures at 124:27:14 hrs.
   
  WARNING: Negative pressures at 124:48:34 hrs.
   
  WARNING: Negative pressures at 124:51:41 hrs.
   
  WARNING: Negative pressures at 125:00:00 hrs.
   
  WARNING: Negative pressures at 125:22:55 hrs.
   
  WARNING: Negative pressures at 125:26:01 hrs.
   
  WARNING: Negative pressures at 125:57:34 hrs.
   
  WARNING: Negative pressures at 126:00:00 hrs.
   
  WARNING: Negative pressures at 126:00:45 hrs.
   
  WARNING: Negative pressures at 126:21:52 hrs.
   
  WARNING: Negative pressures at 126:25:18 hrs.
   
  WARNING: Negative pressures at 126:46:25 hrs.
   
  WARNING: Negative pressures at 126:49:51 hrs.
   
  WARNING: Negative pressures at 127:00:00 hrs.
   
  WARNING: Negative pressures at 127:08:35 hrs.
   
  WARNING: Negative pressures at 127:12:12 hrs.
   
  WARNING: Negative pressures at 127:28:40 hrs.
   
  WARNING: Negative pressures at 127:32:17 hrs.
   
  WARNING: Negative pressures at 127:48:46 hrs.
   
  WARNING: Negative pressures at 127:52:23 hrs.
   
  WARNING: Negative pressures at 128:00:00 hrs.
   
  WARNING: Negative pressures at 128:08:08 hrs.
   
  WARNING: Negative pressures at 128:11:51 hrs.
   
  WARNING: Negative pressures at 128:27:01 hrs.
   
  WARNING: Negative pressures at 128:30:44 hrs.
   
  WARNING: Negative pressures at 128:45:54 hrs.
   
  WARNING: Negative pressures at 128:49:37 hrs.
   
  WARNING: Negative pressures at 129:00:00 hrs.
   
  WARNING: Negative pressures at 129:04:34 hrs.
   
  WARNING: Negative pressures at 129:08:20 hrs.
   
  WARNING: Negative pressures at 129:22:46 hrs.
   
  WARNING: Negative pressures at 129:26:32 hrs.
   
  WARNING: Negative pressures at 129:40:59 hrs.
   
  WARNING: Negative pressures at 129:44:45 hrs.
   
  WARNING: Negative pressures at 129:59:11 hrs.
   
  WARNING: Negative pressures at 130:00:00 hrs.
   
  WARNING: Negative pressures at 130:02:59 hrs.
   
  WARNING: Negative pressures at 130:17:44 hrs.
   
  WARNING: Negative pressures at 130:21:28 hrs.
   
  WARNING: Negative pressures at 130:36:10 hrs.
   
  WARNING: Negative pressures at 130:39:54 hrs.
   
  WARNING: Negative pressures at 130:54:37 hrs.
   
  WARNING: Negative pressures at 130:58:22 hrs.
   
  WARNING: Negative pressures at 131:00:00 hrs.
   
  WARNING: Negative pressures at 131:13:16 hrs.
   
  WARNING: Negative pressures at 131:17:00 hrs.
   
  WARNING: Negative pressures at 131:28:31 hrs.
   
  WARNING: Negative pressures at 131:31:54 hrs.
   
  WARNING: Negative pressures at 131:35:39 hrs.
   
  WARNING: Negative pressures at 131:50:32 hrs.
   
  WARNING: Negative pressures at 131:54:17 hrs.
   
  WARNING: Negative pressures at 132:00:00 hrs.
   
  WARNING: Negative pressures at 132:09:28 hrs.
   
  WARNING: Negative pressures at 132:13:11 hrs.
   
  WARNING: Negative pressures at 132:24:57 hrs.
   
  WARNING: Negative pressures at 132:26:36 hrs.
   
  WARNING: Negative pressures at 132:31:49 hrs.
   
  WARNING: Negative pressures at 132:38:48 hrs.
   
  WARNING: Negative pressures at 132:44:01 hrs.
   
  WARNING: Negative pressures at 132:51:00 hrs.
   
  WARNING: Negative pressures at 132:53:14 hrs.
   
  WARNING: Negative pressures at 132:56:22 hrs.
   
  WARNING: Negative pressures at 133:00:00 hrs.
   
  WARNING: Negative pressures at 133:03:23 hrs.
   
  WARNING: Negative pressures at 133:08:33 hrs.
   
  WARNING: Negative pressures at 133:15:34 hrs.
   
  WARNING: Negative pressures at 133:20:44 hrs.
   
  WARNING: Negative pressures at 133:27:45 hrs.
   
  WARNING: Negative pressures at 133:32:55 hrs.
   
  WARNING: Negative pressures at 133:39:56 hrs.
   
  WARNING: Negative pressures at 133:45:06 hrs.
   
  WARNING: Negative pressures at 133:52:07 hrs.
   
  WARNING: Negative pressures at 133:57:17 hrs.
   
  WARNING: Negative pressures at 134:00:00 hrs.
   
  WARNING: Negative pressures at 134:04:24 hrs.
   
  WARNING: Negative pressures at 134:09:30 hrs.
   
  WARNING: Negative pressures at 134:16:38 hrs.
   
  WARNING: Negative pressures at 134:21:44 hrs.
   
  WARNING: Negative pressures at 134:28:53 hrs.
   
  WARNING: Negative pressures at 134:33:59 hrs.
   
  WARNING: Negative pressures at 134:41:07 hrs.
   
  WARNING: Negative pressures at 134:46:13 hrs.
   
  WARNING: Negative pressures at 134:49:47 hrs.
   
  WARNING: Negative pressures at 134:53:23 hrs.
   
  WARNING: Negative pressures at 134:58:26 hrs.
   
  WARNING: Negative pressures at 135:00:00 hrs.
   
  WARNING: Negative pressures at 135:05:37 hrs.
   
  WARNING: Negative pressures at 135:10:38 hrs.
   
  WARNING: Negative pressures at 135:17:48 hrs.
   
  WARNING: Negative pressures at 135:22:49 hrs.
   
  WARNING: Negative pressures at 135:23:24 hrs.
   
  WARNING: Negative pressures at 135:30:00 hrs.
   
  WARNING: Negative pressures at 135:35:02 hrs.
   
  WARNING: Negative pressures at 135:42:14 hrs.
   
  WARNING: Negative pressures at 135:47:16 hrs.
   
  WARNING: Negative pressures at 135:54:27 hrs.
   
  WARNING: Negative pressures at 135:59:28 hrs.
   
  WARNING: Negative pressures at 136:00:00 hrs.
   
  WARNING: Negative pressures at 136:06:40 hrs.
   
  WARNING: Negative pressures at 136:11:41 hrs.
   
  WARNING: Negative pressures at 136:18:12 hrs.
   
  WARNING: Negative pressures at 136:18:53 hrs.
   
  WARNING: Negative pressures at 136:23:54 hrs.
   
  WARNING: Negative pressures at 136:31:05 hrs.
   
  WARNING: Negative pressures at 136:36:06 hrs.
   
  WARNING: Negative pressures at 136:43:18 hrs.
   
  WARNING: Negative pressures at 136:48:19 hrs.
   
  WARNING: Negative pressures at 136:55:31 hrs.
   
  WARNING: Negative pressures at 137:00:00 hrs.
   
  WARNING: Negative pressures at 137:00:35 hrs.
   
  WARNING: Negative pressures at 137:07:53 hrs.
   
  WARNING: Negative pressures at 137:12:50 hrs.
   
  WARNING: Negative pressures at 137:20:09 hrs.
   
  WARNING: Negative pressures at 137:25:07 hrs.
   
  WARNING: Negative pressures at 137:31:05 hrs.
   
  WARNING: Negative pressures at 137:32:27 hrs.
   
  WARNING: Negative pressures at 137:37:24 hrs.
   
  WARNING: Negative pressures at 137:44:42 hrs.
   
  WARNING: Negative pressures at 137:45:38 hrs.
   
  WARNING: Negative pressures at 137:50:13 hrs.
   
  WARNING: Negative pressures at 137:57:32 hrs.
   
  WARNING: Negative pressures at 138:00:00 hrs.
   
  WARNING: Negative pressures at 138:02:37 hrs.
   
  WARNING: Negative pressures at 138:10:00 hrs.
   
  WARNING: Negative pressures at 138:14:55 hrs.
   
  WARNING: Negative pressures at 138:22:19 hrs.
   
  WARNING: Negative pressures at 138:27:14 hrs.
   
  WARNING: Negative pressures at 138:34:38 hrs.
   
  WARNING: Negative pressures at 138:39:33 hrs.
   
  WARNING: Negative pressures at 138:41:40 hrs.
   
  WARNING: Negative pressures at 138:46:58 hrs.
   
  WARNING: Negative pressures at 138:51:53 hrs.
   
  WARNING: Negative pressures at 138:59:17 hrs.
   
  WARNING: Negative pressures at 139:00:00 hrs.
   
  WARNING: Negative pressures at 139:04:11 hrs.
   
  WARNING: Negative pressures at 139:11:45 hrs.
   
  WARNING: Negative pressures at 139:16:34 hrs.
   
  WARNING: Negative pressures at 139:24:09 hrs.
   
  WARNING: Negative pressures at 139:28:58 hrs.
   
  WARNING: Negative pressures at 139:36:32 hrs.
   
  WARNING: Negative pressures at 139:41:21 hrs.
   
  WARNING: Negative pressures at 139:48:56 hrs.
   
  WARNING: Negative pressures at 139:53:45 hrs.
   
  WARNING: Negative pressures at 140:00:00 hrs.
   
  WARNING: Negative pressures at 140:01:26 hrs.
   
  WARNING: Negative pressures at 140:06:03 hrs.
   
  WARNING: Negative pressures at 140:14:07 hrs.
   
  WARNING: Negative pressures at 140:18:43 hrs.
   
  WARNING: Negative pressures at 140:26:45 hrs.
   
  WARNING: Negative pressures at 140:31:21 hrs.
   
  WARNING: Negative pressures at 140:39:24 hrs.
   
  WARNING: Negative pressures at 140:44:00 hrs.
   
  WARNING: Negative pressures at 140:52:03 hrs.
   
  WARNING: Negative pressures at 140:56:39 hrs.
   
  WARNING: Negative pressures at 140:59:07 hrs.
   
  WARNING: Negative pressures at 141:00:00 hrs.
   
  WARNING: Negative pressures at 141:00:06 hrs.
   
  WARNING: Negative pressures at 141:04:58 hrs.
   
  WARNING: Negative pressures at 141:05:15 hrs.
   
  WARNING: Negative pressures at 141:09:13 hrs.
   
  WARNING: Negative pressures at 141:09:27 hrs.
   
  WARNING: Negative pressures at 141:17:42 hrs.
   
  WARNING: Negative pressures at 141:18:11 hrs.
   
  WARNING: Negative pressures at 141:21:59 hrs.
   
  WARNING: Negative pressures at 141:22:12 hrs.
   
  WARNING: Negative pressures at 141:30:28 hrs.
   
  WARNING: Negative pressures at 141:30:57 hrs.
   
  WARNING: Negative pressures at 141:34:45 hrs.
   
  WARNING: Negative pressures at 141:34:58 hrs.
   
  WARNING: Negative pressures at 141:43:14 hrs.
   
  WARNING: Negative pressures at 141:43:43 hrs.
   
  WARNING: Negative pressures at 141:47:31 hrs.
   
  WARNING: Negative pressures at 141:47:44 hrs.
   
  WARNING: Negative pressures at 141:56:00 hrs.
   
  WARNING: Negative pressures at 141:56:29 hrs.
   
  WARNING: Negative pressures at 142:00:00 hrs.
   
  WARNING: Negative pressures at 142:00:12 hrs.
   
  WARNING: Negative pressures at 142:00:18 hrs.
   
  WARNING: Negative pressures at 142:09:03 hrs.
   
  WARNING: Negative pressures at 142:09:14 hrs.
   
  WARNING: Negative pressures at 142:13:13 hrs.
   
  WARNING: Negative pressures at 142:13:18 hrs.
   
  WARNING: Negative pressures at 142:22:00 hrs.
   
  WARNING: Negative pressures at 142:22:11 hrs.
   
  WARNING: Negative pressures at 142:26:10 hrs.
   
  WARNING: Negative pressures at 142:26:15 hrs.
   
  WARNING: Negative pressures at 142:34:57 hrs.
   
  WARNING: Negative pressures at 142:35:08 hrs.
   
  WARNING: Negative pressures at 142:39:07 hrs.
   
  WARNING: Negative pressures at 142:39:12 hrs.
   
  WARNING: Negative pressures at 142:47:54 hrs.
   
  WARNING: Negative pressures at 142:48:05 hrs.
   
  WARNING: Negative pressures at 142:52:04 hrs.
   
  WARNING: Negative pressures at 142:52:09 hrs.
   
  WARNING: Negative pressures at 143:00:00 hrs.
   
  WARNING: Negative pressures at 143:00:10 hrs.
   
  WARNING: Negative pressures at 143:00:53 hrs.
   
  WARNING: Negative pressures at 143:04:58 hrs.
   
  WARNING: Negative pressures at 143:14:00 hrs.
   
  WARNING: Negative pressures at 143:18:05 hrs.
   
  WARNING: Negative pressures at 143:27:08 hrs.
   
  WARNING: Negative pressures at 143:31:13 hrs.
   
  WARNING: Negative pressures at 143:40:16 hrs.
   
  WARNING: Negative pressures at 143:44:21 hrs.
   
  WARNING: Negative pressures at 143:53:24 hrs.
   
  WARNING: Negative pressures at 143:57:29 hrs.
   
  WARNING: Negative pressures at 144:00:00 hrs.
   
  WARNING: Negative pressures at 144:06:42 hrs.
   
  WARNING: Negative pressures at 144:10:44 hrs.
   
  WARNING: Negative pressures at 144:19:59 hrs.
   
  WARNING: Negative pressures at 144:24:01 hrs.
   
  WARNING: Negative pressures at 144:33:17 hrs.
   
  WARNING: Negative pressures at 144:37:19 hrs.
   
  WARNING: Negative pressures at 144:46:34 hrs.
   
  WARNING: Negative pressures at 144:50:36 hrs.
   
  WARNING: Negative pressures at 144:59:52 hrs.
   
  WARNING: Negative pressures at 145:00:00 hrs.
   
  WARNING: Negative pressures at 145:03:55 hrs.
   
  WARNING: Negative pressures at 145:13:08 hrs.
   
  WARNING: Negative pressures at 145:17:10 hrs.
   
  WARNING: Negative pressures at 145:26:22 hrs.
   
  WARNING: Negative pressures at 145:30:24 hrs.
   
  WARNING: Negative pressures at 145:39:36 hrs.
   
  WARNING: Negative pressures at 145:43:38 hrs.
   
  WARNING: Negative pressures at 145:52:50 hrs.
   
  WARNING: Negative pressures at 145:56:52 hrs.
   
  WARNING: Negative pressures at 146:00:00 hrs.
   
  WARNING: Negative pressures at 146:06:03 hrs.
   
  WARNING: Negative pressures at 146:10:06 hrs.
   
  WARNING: Negative pressures at 146:19:14 hrs.
   
  WARNING: Negative pressures at 146:23:17 hrs.
   
  WARNING: Negative pressures at 146:32:25 hrs.
   
  WARNING: Negative pressures at 146:36:28 hrs.
   
  WARNING: Negative pressures at 146:45:36 hrs.
   
  WARNING: Negative pressures at 146:49:39 hrs.
   
  WARNING: Negative pressures at 146:58:47 hrs.
   
  WARNING: Negative pressures at 147:00:00 hrs.
   
  WARNING: Negative pressures at 147:02:55 hrs.
   
  WARNING: Negative pressures at 147:12:02 hrs.
   
  WARNING: Negative pressures at 147:16:05 hrs.
   
  WARNING: Negative pressures at 147:24:04 hrs.
   
  WARNING: Negative pressures at 147:25:13 hrs.
   
  WARNING: Negative pressures at 147:29:32 hrs.
   
  WARNING: Negative pressures at 147:38:40 hrs.
   
  WARNING: Negative pressures at 147:38:42 hrs.
   
  WARNING: Negative pressures at 147:42:45 hrs.
   
  WARNING: Negative pressures at 147:42:46 hrs.
   
  WARNING: Negative pressures at 147:51:53 hrs.
   
  WARNING: Negative pressures at 147:51:55 hrs.
   
  WARNING: Negative pressures at 147:55:58 hrs.
   
  WARNING: Negative pressures at 147:55:59 hrs.
   
  WARNING: Negative pressures at 148:00:00 hrs.
   
  WARNING: Negative pressures at 148:00:01 hrs.
   
  WARNING: Negative pressures at 148:05:05 hrs.
   
  WARNING: Negative pressures at 148:05:09 hrs.
   
  WARNING: Negative pressures at 148:09:12 hrs.
   
  WARNING: Negative pressures at 148:09:15 hrs.
   
  WARNING: Negative pressures at 148:18:17 hrs.
   
  WARNING: Negative pressures at 148:18:23 hrs.
   
  WARNING: Negative pressures at 148:22:24 hrs.
   
  WARNING: Negative pressures at 148:22:27 hrs.
   
  WARNING: Negative pressures at 148:27:18 hrs.
   
  WARNING: Negative pressures at 148:27:21 hrs.
   
  WARNING: Negative pressures at 148:41:15 hrs.
   
  WARNING: Negative pressures at 148:41:25 hrs.
   
  WARNING: Negative pressures at 148:44:24 hrs.
   
  WARNING: Negative pressures at 148:44:26 hrs.
   
  WARNING: Negative pressures at 149:00:00 hrs.
   
  WARNING: Negative pressures at 149:00:10 hrs.
   
  WARNING: Negative pressures at 149:15:23 hrs.
   
  WARNING: Negative pressures at 149:18:30 hrs.
   
  WARNING: Negative pressures at 149:49:14 hrs.
   
  WARNING: Negative pressures at 149:50:03 hrs.
   
  WARNING: Negative pressures at 149:53:09 hrs.
   
  WARNING: Negative pressures at 150:00:00 hrs.
   
  WARNING: Negative pressures at 150:16:31 hrs.
   
  WARNING: Negative pressures at 150:19:57 hrs.
   
  WARNING: Negative pressures at 150:41:03 hrs.
   
  WARNING: Negative pressures at 150:44:29 hrs.
   
  WARNING: Negative pressures at 151:00:00 hrs.
   
  WARNING: Negative pressures at 151:04:23 hrs.
   
  WARNING: Negative pressures at 151:08:01 hrs.
   
  WARNING: Negative pressures at 151:24:33 hrs.
   
  WARNING: Negative pressures at 151:28:10 hrs.
   
  WARNING: Negative pressures at 151:44:39 hrs.
   
  WARNING: Negative pressures at 151:48:17 hrs.
   
  WARNING: Negative pressures at 152:00:00 hrs.
   
  WARNING: Negative pressures at 152:04:25 hrs.
   
  WARNING: Negative pressures at 152:08:08 hrs.
   
  WARNING: Negative pressures at 152:23:18 hrs.
   
  WARNING: Negative pressures at 152:27:01 hrs.
   
  WARNING: Negative pressures at 152:42:11 hrs.
   
  WARNING: Negative pressures at 152:45:54 hrs.
   
  WARNING: Negative pressures at 153:00:00 hrs.
   
  WARNING: Negative pressures at 153:01:00 hrs.
   
  WARNING: Negative pressures at 153:04:46 hrs.
   
  WARNING: Negative pressures at 153:19:13 hrs.
   
  WARNING: Negative pressures at 153:22:59 hrs.
   
  WARNING: Negative pressures at 153:37:25 hrs.
   
  WARNING: Negative pressures at 153:41:11 hrs.
   
  WARNING: Negative pressures at 153:55:38 hrs.
   
  WARNING: Negative pressures at 153:59:24 hrs.
   
  WARNING: Negative pressures at 154:00:00 hrs.
   
  WARNING: Negative pressures at 154:14:08 hrs.
   
  WARNING: Negative pressures at 154:17:53 hrs.
   
  WARNING: Negative pressures at 154:32:39 hrs.
   
  WARNING: Negative pressures at 154:36:23 hrs.
   
  WARNING: Negative pressures at 154:51:05 hrs.
   
  WARNING: Negative pressures at 154:54:49 hrs.
   
  WARNING: Negative pressures at 155:00:00 hrs.
   
  WARNING: Negative pressures at 155:09:37 hrs.
   
  WARNING: Negative pressures at 155:13:21 hrs.
   
  WARNING: Negative pressures at 155:28:15 hrs.
   
  WARNING: Negative pressures at 155:31:59 hrs.
   
  WARNING: Negative pressures at 155:46:53 hrs.
   
  WARNING: Negative pressures at 155:50:37 hrs.
   
  WARNING: Negative pressures at 156:00:00 hrs.
   
  WARNING: Negative pressures at 156:05:42 hrs.
   
  WARNING: Negative pressures at 156:09:24 hrs.
   
  WARNING: Negative pressures at 156:17:13 hrs.
   
  WARNING: Negative pressures at 156:24:47 hrs.
   
  WARNING: Negative pressures at 156:24:59 hrs.
   
  WARNING: Negative pressures at 156:29:53 hrs.
   
  WARNING: Negative pressures at 156:33:46 hrs.
   
  WARNING: Negative pressures at 156:36:53 hrs.
   
  WARNING: Negative pressures at 156:42:02 hrs.
   
  WARNING: Negative pressures at 156:49:01 hrs.
   
  WARNING: Negative pressures at 156:54:10 hrs.
   
  WARNING: Negative pressures at 157:00:00 hrs.
   
  WARNING: Negative pressures at 157:01:10 hrs.
   
  WARNING: Negative pressures at 157:06:17 hrs.
   
  WARNING: Negative pressures at 157:13:19 hrs.
   
  WARNING: Negative pressures at 157:18:26 hrs.
   
  WARNING: Negative pressures at 157:25:27 hrs.
   
  WARNING: Negative pressures at 157:30:34 hrs.
   
  WARNING: Negative pressures at 157:37:36 hrs.
   
  WARNING: Negative pressures at 157:42:43 hrs.
   
  WARNING: Negative pressures at 157:49:44 hrs.
   
  WARNING: Negative pressures at 157:54:51 hrs.
   
  WARNING: Negative pressures at 158:00:00 hrs.
   
  WARNING: Negative pressures at 158:01:55 hrs.
   
  WARNING: Negative pressures at 158:06:58 hrs.
   
  WARNING: Negative pressures at 158:14:07 hrs.
   
  WARNING: Negative pressures at 158:19:10 hrs.
   
  WARNING: Negative pressures at 158:26:19 hrs.
   
  WARNING: Negative pressures at 158:27:44 hrs.
   
  WARNING: Negative pressures at 158:31:58 hrs.
   
  WARNING: Negative pressures at 158:39:07 hrs.
   
  WARNING: Negative pressures at 158:44:10 hrs.
   
  WARNING: Negative pressures at 158:46:09 hrs.
   
  WARNING: Negative pressures at 158:51:20 hrs.
   
  WARNING: Negative pressures at 158:56:26 hrs.
   
  WARNING: Negative pressures at 158:57:53 hrs.
   
  WARNING: Negative pressures at 159:00:00 hrs.
   
  WARNING: Negative pressures at 159:03:37 hrs.
   
  WARNING: Negative pressures at 159:08:42 hrs.
   
  WARNING: Negative pressures at 159:12:40 hrs.
   
  WARNING: Negative pressures at 159:15:54 hrs.
   
  WARNING: Negative pressures at 159:20:59 hrs.
   
  WARNING: Negative pressures at 159:28:10 hrs.
   
  WARNING: Negative pressures at 159:33:15 hrs.
   
  WARNING: Negative pressures at 159:35:11 hrs.
   
  WARNING: Negative pressures at 159:40:27 hrs.
   
  WARNING: Negative pressures at 159:45:32 hrs.
   
  WARNING: Negative pressures at 159:52:43 hrs.
   
  WARNING: Negative pressures at 159:57:48 hrs.
   
  WARNING: Negative pressures at 160:00:00 hrs.
   
  WARNING: Negative pressures at 160:05:01 hrs.
   
  WARNING: Negative pressures at 160:10:06 hrs.
   
  WARNING: Negative pressures at 160:12:05 hrs.
   
  WARNING: Negative pressures at 160:17:19 hrs.
   
  WARNING: Negative pressures at 160:22:23 hrs.
   
  WARNING: Negative pressures at 160:29:35 hrs.
   
  WARNING: Negative pressures at 160:34:40 hrs.
   
  WARNING: Negative pressures at 160:41:52 hrs.
   
  WARNING: Negative pressures at 160:46:56 hrs.
   
  WARNING: Negative pressures at 160:49:11 hrs.
   
  WARNING: Negative pressures at 160:54:09 hrs.
   
  WARNING: Negative pressures at 160:59:14 hrs.
   
  WARNING: Negative pressures at 161:00:00 hrs.
   
  WARNING: Negative pressures at 161:06:33 hrs.
   
  WARNING: Negative pressures at 161:11:34 hrs.
   
  WARNING: Negative pressures at 161:18:53 hrs.
   
  WARNING: Negative pressures at 161:23:53 hrs.
   
  WARNING: Negative pressures at 161:29:42 hrs.
   
  WARNING: Negative pressures at 161:31:12 hrs.
   
  WARNING: Negative pressures at 161:36:13 hrs.
   
  WARNING: Negative pressures at 161:42:28 hrs.
   
  WARNING: Negative pressures at 161:43:33 hrs.
   
  WARNING: Negative pressures at 161:48:33 hrs.
   
  WARNING: Negative pressures at 161:51:40 hrs.
   
  WARNING: Negative pressures at 161:55:52 hrs.
   
  WARNING: Negative pressures at 162:00:00 hrs.
   
  WARNING: Negative pressures at 162:00:58 hrs.
   
  WARNING: Negative pressures at 162:08:22 hrs.
   
  WARNING: Negative pressures at 162:13:20 hrs.
   
  WARNING: Negative pressures at 162:20:44 hrs.
   
  WARNING: Negative pressures at 162:25:42 hrs.
   
  WARNING: Negative pressures at 162:31:52 hrs.
   
  WARNING: Negative pressures at 162:33:06 hrs.
   
  WARNING: Negative pressures at 162:38:04 hrs.
   
  WARNING: Negative pressures at 162:43:59 hrs.
   
  WARNING: Negative pressures at 162:45:29 hrs.
   
  WARNING: Negative pressures at 162:50:27 hrs.
   
  WARNING: Negative pressures at 162:57:51 hrs.
   
  WARNING: Negative pressures at 162:58:44 hrs.
   
  WARNING: Negative pressures at 163:00:00 hrs.
   
  WARNING: Negative pressures at 163:03:02 hrs.
   
  WARNING: Negative pressures at 163:10:20 hrs.
   
  WARNING: Negative pressures at 163:10:37 hrs.
   
  WARNING: Negative pressures at 163:15:26 hrs.
   
  WARNING: Negative pressures at 163:23:00 hrs.
   
  WARNING: Negative pressures at 163:27:49 hrs.
   
  WARNING: Negative pressures at 163:35:24 hrs.
   
  WARNING: Negative pressures at 163:40:13 hrs.
   
  WARNING: Negative pressures at 163:47:48 hrs.
   
  WARNING: Negative pressures at 163:52:37 hrs.
   
  WARNING: Negative pressures at 164:00:00 hrs.
   
  WARNING: Negative pressures at 164:00:13 hrs.
   
  WARNING: Negative pressures at 164:04:50 hrs.
   
  WARNING: Negative pressures at 164:12:53 hrs.
   
  WARNING: Negative pressures at 164:17:29 hrs.
   
  WARNING: Negative pressures at 164:25:32 hrs.
   
  WARNING: Negative pressures at 164:30:09 hrs.
   
  WARNING: Negative pressures at 164:38:13 hrs.
   
  WARNING: Negative pressures at 164:42:49 hrs.
   
  WARNING: Negative pressures at 164:50:52 hrs.
   
  WARNING: Negative pressures at 164:55:28 hrs.
   
  WARNING: Negative pressures at 165:00:00 hrs.
   
  WARNING: Negative pressures at 165:02:00 hrs.
   
  WARNING: Negative pressures at 165:03:44 hrs.
   
  WARNING: Negative pressures at 165:03:50 hrs.
   
  WARNING: Negative pressures at 165:07:58 hrs.
   
  WARNING: Negative pressures at 165:08:13 hrs.
   
  WARNING: Negative pressures at 165:16:27 hrs.
   
  WARNING: Negative pressures at 165:16:56 hrs.
   
  WARNING: Negative pressures at 165:20:44 hrs.
   
  WARNING: Negative pressures at 165:20:57 hrs.
   
  WARNING: Negative pressures at 165:29:13 hrs.
   
  WARNING: Negative pressures at 165:29:42 hrs.
   
  WARNING: Negative pressures at 165:33:30 hrs.
   
  WARNING: Negative pressures at 165:33:43 hrs.
   
  WARNING: Negative pressures at 165:41:59 hrs.
   
  WARNING: Negative pressures at 165:42:28 hrs.
   
  WARNING: Negative pressures at 165:46:16 hrs.
   
  WARNING: Negative pressures at 165:46:29 hrs.
   
  WARNING: Negative pressures at 165:54:46 hrs.
   
  WARNING: Negative pressures at 165:55:15 hrs.
   
  WARNING: Negative pressures at 165:59:03 hrs.
   
  WARNING: Negative pressures at 165:59:16 hrs.
   
  WARNING: Negative pressures at 166:00:00 hrs.
   
  WARNING: Negative pressures at 166:00:02 hrs.
   
  WARNING: Negative pressures at 166:07:48 hrs.
   
  WARNING: Negative pressures at 166:07:58 hrs.
   
  WARNING: Negative pressures at 166:11:58 hrs.
   
  WARNING: Negative pressures at 166:12:03 hrs.
   
  WARNING: Negative pressures at 166:20:45 hrs.
   
  WARNING: Negative pressures at 166:20:56 hrs.
   
  WARNING: Negative pressures at 166:24:55 hrs.
   
  WARNING: Negative pressures at 166:25:00 hrs.
   
  WARNING: Negative pressures at 166:33:42 hrs.
   
  WARNING: Negative pressures at 166:33:53 hrs.
   
  WARNING: Negative pressures at 166:37:52 hrs.
   
  WARNING: Negative pressures at 166:37:57 hrs.
   
  WARNING: Negative pressures at 166:46:39 hrs.
   
  WARNING: Negative pressures at 166:46:50 hrs.
   
  WARNING: Negative pressures at 166:50:49 hrs.
   
  WARNING: Negative pressures at 166:50:54 hrs.
   
  WARNING: Negative pressures at 166:59:36 hrs.
   
  WARNING: Negative pressures at 166:59:47 hrs.
   
  WARNING: Negative pressures at 167:00:00 hrs.
   
  WARNING: Negative pressures at 167:03:56 hrs.
   
  WARNING: Negative pressures at 167:12:57 hrs.
   
  WARNING: Negative pressures at 167:17:02 hrs.
   
  WARNING: Negative pressures at 167:26:05 hrs.
   
  WARNING: Negative pressures at 167:30:10 hrs.
   
  WARNING: Negative pressures at 167:39:13 hrs.
   
  WARNING: Negative pressures at 167:43:18 hrs.
   
  WARNING: Negative pressures at 167:52:21 hrs.
   
  WARNING: Negative pressures at 167:56:26 hrs.
   
  WARNING: Negative pressures at 168:00:00 hrs.
   
  Analysis ended Tue Feb 02 11:58:17 2021
