  Page 1                                    Fri Jan 29 11:44:08 2021

  ******************************************************************
  *                           E P A N E T                          *
  *                   Hydraulic and Water Quality                  *
  *                   Analysis for Pipe Networks                   *
  *                         Version 2.2                            *
  ******************************************************************
  
  Analysis begun Fri Jan 29 11:44:09 2021

  WARNING: Negative pressures at 0:00:00 hrs.
   
  WARNING: Negative pressures at 0:33:33 hrs.
   
  WARNING: Negative pressures at 0:35:12 hrs.
   
  WARNING: Negative pressures at 3:48:41 hrs.
   
  WARNING: Negative pressures at 3:52:46 hrs.
   
  WARNING: Negative pressures at 3:55:52 hrs.
   
  WARNING: Negative pressures at 4:00:00 hrs.
   
  WARNING: Negative pressures at 4:26:22 hrs.
   
  WARNING: Negative pressures at 4:29:29 hrs.
   
  WARNING: Negative pressures at 4:59:55 hrs.
   
  WARNING: Negative pressures at 5:00:00 hrs.
   
  WARNING: Negative pressures at 5:03:01 hrs.
   
  WARNING: Negative pressures at 5:34:30 hrs.
   
  WARNING: Negative pressures at 5:37:36 hrs.
   
  WARNING: Negative pressures at 6:00:00 hrs.
   
  WARNING: Negative pressures at 6:06:07 hrs.
   
  WARNING: Negative pressures at 6:09:33 hrs.
   
  WARNING: Negative pressures at 6:30:39 hrs.
   
  WARNING: Negative pressures at 6:34:05 hrs.
   
  WARNING: Negative pressures at 6:55:12 hrs.
   
  WARNING: Negative pressures at 6:58:38 hrs.
   
  WARNING: Negative pressures at 7:00:00 hrs.
   
  WARNING: Negative pressures at 7:15:26 hrs.
   
  WARNING: Negative pressures at 7:19:03 hrs.
   
  WARNING: Negative pressures at 7:35:32 hrs.
   
  WARNING: Negative pressures at 7:39:09 hrs.
   
  WARNING: Negative pressures at 7:55:37 hrs.
   
  WARNING: Negative pressures at 7:59:14 hrs.
   
  WARNING: Negative pressures at 8:00:00 hrs.
   
  WARNING: Negative pressures at 8:14:25 hrs.
   
  WARNING: Negative pressures at 8:18:08 hrs.
   
  WARNING: Negative pressures at 8:33:18 hrs.
   
  WARNING: Negative pressures at 8:37:01 hrs.
   
  WARNING: Negative pressures at 8:52:11 hrs.
   
  WARNING: Negative pressures at 8:55:54 hrs.
   
  WARNING: Negative pressures at 9:00:00 hrs.
   
  WARNING: Negative pressures at 9:10:32 hrs.
   
  WARNING: Negative pressures at 9:14:18 hrs.
   
  WARNING: Negative pressures at 9:28:45 hrs.
   
  WARNING: Negative pressures at 9:32:31 hrs.
   
  WARNING: Negative pressures at 9:46:57 hrs.
   
  WARNING: Negative pressures at 9:50:43 hrs.
   
  WARNING: Negative pressures at 10:00:00 hrs.
   
  WARNING: Negative pressures at 10:05:16 hrs.
   
  WARNING: Negative pressures at 10:09:00 hrs.
   
  WARNING: Negative pressures at 10:18:43 hrs.
   
  WARNING: Negative pressures at 10:21:03 hrs.
   
  WARNING: Negative pressures at 10:26:17 hrs.
   
  WARNING: Negative pressures at 10:33:08 hrs.
   
  WARNING: Negative pressures at 10:38:23 hrs.
   
  WARNING: Negative pressures at 10:45:15 hrs.
   
  WARNING: Negative pressures at 10:50:29 hrs.
   
  WARNING: Negative pressures at 10:57:20 hrs.
   
  WARNING: Negative pressures at 11:00:00 hrs.
   
  WARNING: Negative pressures at 11:02:45 hrs.
   
  WARNING: Negative pressures at 11:09:39 hrs.
   
  WARNING: Negative pressures at 11:14:53 hrs.
   
  WARNING: Negative pressures at 11:21:47 hrs.
   
  WARNING: Negative pressures at 11:27:01 hrs.
   
  WARNING: Negative pressures at 11:33:55 hrs.
   
  WARNING: Negative pressures at 11:39:09 hrs.
   
  WARNING: Negative pressures at 11:46:03 hrs.
   
  WARNING: Negative pressures at 11:51:17 hrs.
   
  WARNING: Negative pressures at 11:58:11 hrs.
   
  WARNING: Negative pressures at 12:00:00 hrs.
   
  WARNING: Negative pressures at 12:03:31 hrs.
   
  WARNING: Negative pressures at 12:10:30 hrs.
   
  WARNING: Negative pressures at 12:15:13 hrs.
   
  WARNING: Negative pressures at 12:15:44 hrs.
   
  WARNING: Negative pressures at 12:22:43 hrs.
   
  WARNING: Negative pressures at 12:26:47 hrs.
   
  WARNING: Negative pressures at 12:27:59 hrs.
   
  WARNING: Negative pressures at 12:34:58 hrs.
   
  WARNING: Negative pressures at 12:40:10 hrs.
   
  WARNING: Negative pressures at 12:47:09 hrs.
   
  WARNING: Negative pressures at 12:52:21 hrs.
   
  WARNING: Negative pressures at 12:59:20 hrs.
   
  WARNING: Negative pressures at 13:00:00 hrs.
   
  WARNING: Negative pressures at 13:04:35 hrs.
   
  WARNING: Negative pressures at 13:11:37 hrs.
   
  WARNING: Negative pressures at 13:16:48 hrs.
   
  WARNING: Negative pressures at 13:23:50 hrs.
   
  WARNING: Negative pressures at 13:29:00 hrs.
   
  WARNING: Negative pressures at 13:36:01 hrs.
   
  WARNING: Negative pressures at 13:41:11 hrs.
   
  WARNING: Negative pressures at 13:48:12 hrs.
   
  WARNING: Negative pressures at 13:53:22 hrs.
   
  WARNING: Negative pressures at 14:00:00 hrs.
   
  WARNING: Negative pressures at 14:00:24 hrs.
   
  WARNING: Negative pressures at 14:05:30 hrs.
   
  WARNING: Negative pressures at 14:12:39 hrs.
   
  WARNING: Negative pressures at 14:17:45 hrs.
   
  WARNING: Negative pressures at 14:24:54 hrs.
   
  WARNING: Negative pressures at 14:30:00 hrs.
   
  WARNING: Negative pressures at 14:37:08 hrs.
   
  WARNING: Negative pressures at 14:42:14 hrs.
   
  WARNING: Negative pressures at 14:49:23 hrs.
   
  WARNING: Negative pressures at 14:54:29 hrs.
   
  WARNING: Negative pressures at 14:58:34 hrs.
   
  WARNING: Negative pressures at 15:00:00 hrs.
   
  WARNING: Negative pressures at 15:01:40 hrs.
   
  WARNING: Negative pressures at 15:06:45 hrs.
   
  WARNING: Negative pressures at 15:08:34 hrs.
   
  WARNING: Negative pressures at 15:13:57 hrs.
   
  WARNING: Negative pressures at 15:19:02 hrs.
   
  WARNING: Negative pressures at 15:26:13 hrs.
   
  WARNING: Negative pressures at 15:31:18 hrs.
   
  WARNING: Negative pressures at 15:38:30 hrs.
   
  WARNING: Negative pressures at 15:43:35 hrs.
   
  WARNING: Negative pressures at 15:46:12 hrs.
   
  WARNING: Negative pressures at 15:50:47 hrs.
   
  WARNING: Negative pressures at 15:55:52 hrs.
   
  WARNING: Negative pressures at 16:00:00 hrs.
   
  WARNING: Negative pressures at 16:03:05 hrs.
   
  WARNING: Negative pressures at 16:08:09 hrs.
   
  WARNING: Negative pressures at 16:12:15 hrs.
   
  WARNING: Negative pressures at 16:15:22 hrs.
   
  WARNING: Negative pressures at 16:20:06 hrs.
   
  WARNING: Negative pressures at 16:20:28 hrs.
   
  WARNING: Negative pressures at 16:23:15 hrs.
   
  WARNING: Negative pressures at 16:27:41 hrs.
   
  WARNING: Negative pressures at 16:32:42 hrs.
   
  WARNING: Negative pressures at 16:39:54 hrs.
   
  WARNING: Negative pressures at 16:44:55 hrs.
   
  WARNING: Negative pressures at 16:52:07 hrs.
   
  WARNING: Negative pressures at 16:57:08 hrs.
   
  WARNING: Negative pressures at 17:00:00 hrs.
   
  WARNING: Negative pressures at 17:00:50 hrs.
   
  WARNING: Negative pressures at 17:04:25 hrs.
   
  WARNING: Negative pressures at 17:09:22 hrs.
   
  WARNING: Negative pressures at 17:16:41 hrs.
   
  WARNING: Negative pressures at 17:21:38 hrs.
   
  WARNING: Negative pressures at 17:28:56 hrs.
   
  WARNING: Negative pressures at 17:33:53 hrs.
   
  WARNING: Negative pressures at 17:38:50 hrs.
   
  WARNING: Negative pressures at 17:41:13 hrs.
   
  WARNING: Negative pressures at 17:46:10 hrs.
   
  WARNING: Negative pressures at 17:53:29 hrs.
   
  WARNING: Negative pressures at 17:58:27 hrs.
   
  WARNING: Negative pressures at 18:00:00 hrs.
   
  WARNING: Negative pressures at 18:05:09 hrs.
   
  WARNING: Negative pressures at 18:05:51 hrs.
   
  WARNING: Negative pressures at 18:10:46 hrs.
   
  WARNING: Negative pressures at 18:14:07 hrs.
   
  WARNING: Negative pressures at 18:18:12 hrs.
   
  WARNING: Negative pressures at 18:23:07 hrs.
   
  WARNING: Negative pressures at 18:30:31 hrs.
   
  WARNING: Negative pressures at 18:35:26 hrs.
   
  WARNING: Negative pressures at 18:42:50 hrs.
   
  WARNING: Negative pressures at 18:47:45 hrs.
   
  WARNING: Negative pressures at 18:55:09 hrs.
   
  WARNING: Negative pressures at 19:00:00 hrs.
   
  WARNING: Negative pressures at 19:00:04 hrs.
   
  WARNING: Negative pressures at 19:07:39 hrs.
   
  WARNING: Negative pressures at 19:12:28 hrs.
   
  WARNING: Negative pressures at 19:20:02 hrs.
   
  WARNING: Negative pressures at 19:24:51 hrs.
   
  WARNING: Negative pressures at 19:32:26 hrs.
   
  WARNING: Negative pressures at 19:37:15 hrs.
   
  WARNING: Negative pressures at 19:44:50 hrs.
   
  WARNING: Negative pressures at 19:49:39 hrs.
   
  WARNING: Negative pressures at 19:57:14 hrs.
   
  WARNING: Negative pressures at 20:00:00 hrs.
   
  WARNING: Negative pressures at 20:02:05 hrs.
   
  WARNING: Negative pressures at 20:10:08 hrs.
   
  WARNING: Negative pressures at 20:14:44 hrs.
   
  WARNING: Negative pressures at 20:22:47 hrs.
   
  WARNING: Negative pressures at 20:27:24 hrs.
   
  WARNING: Negative pressures at 20:35:28 hrs.
   
  WARNING: Negative pressures at 20:40:04 hrs.
   
  WARNING: Negative pressures at 20:48:07 hrs.
   
  WARNING: Negative pressures at 20:52:43 hrs.
   
  WARNING: Negative pressures at 21:00:00 hrs.
   
  WARNING: Negative pressures at 21:00:50 hrs.
   
  WARNING: Negative pressures at 21:02:22 hrs.
   
  WARNING: Negative pressures at 21:05:14 hrs.
   
  WARNING: Negative pressures at 21:05:24 hrs.
   
  WARNING: Negative pressures at 21:13:43 hrs.
   
  WARNING: Negative pressures at 21:14:12 hrs.
   
  WARNING: Negative pressures at 21:18:00 hrs.
   
  WARNING: Negative pressures at 21:18:13 hrs.
   
  WARNING: Negative pressures at 21:26:30 hrs.
   
  WARNING: Negative pressures at 21:26:59 hrs.
   
  WARNING: Negative pressures at 21:30:47 hrs.
   
  WARNING: Negative pressures at 21:31:00 hrs.
   
  WARNING: Negative pressures at 21:39:16 hrs.
   
  WARNING: Negative pressures at 21:39:45 hrs.
   
  WARNING: Negative pressures at 21:43:33 hrs.
   
  WARNING: Negative pressures at 21:43:46 hrs.
   
  WARNING: Negative pressures at 21:52:03 hrs.
   
  WARNING: Negative pressures at 21:52:32 hrs.
   
  WARNING: Negative pressures at 21:56:20 hrs.
   
  WARNING: Negative pressures at 21:56:33 hrs.
   
  WARNING: Negative pressures at 22:00:00 hrs.
   
  WARNING: Negative pressures at 22:00:12 hrs.
   
  WARNING: Negative pressures at 22:05:01 hrs.
   
  WARNING: Negative pressures at 22:05:07 hrs.
   
  WARNING: Negative pressures at 22:09:10 hrs.
   
  WARNING: Negative pressures at 22:09:15 hrs.
   
  WARNING: Negative pressures at 22:17:56 hrs.
   
  WARNING: Negative pressures at 22:18:07 hrs.
   
  WARNING: Negative pressures at 22:22:06 hrs.
   
  WARNING: Negative pressures at 22:22:11 hrs.
   
  WARNING: Negative pressures at 22:30:53 hrs.
   
  WARNING: Negative pressures at 22:31:04 hrs.
   
  WARNING: Negative pressures at 22:35:03 hrs.
   
  WARNING: Negative pressures at 22:35:08 hrs.
   
  WARNING: Negative pressures at 22:43:50 hrs.
   
  WARNING: Negative pressures at 22:44:01 hrs.
   
  WARNING: Negative pressures at 22:48:00 hrs.
   
  WARNING: Negative pressures at 22:48:05 hrs.
   
  WARNING: Negative pressures at 22:56:47 hrs.
   
  WARNING: Negative pressures at 22:56:58 hrs.
   
  WARNING: Negative pressures at 23:00:00 hrs.
   
  WARNING: Negative pressures at 23:00:04 hrs.
   
  WARNING: Negative pressures at 23:01:00 hrs.
   
  WARNING: Negative pressures at 23:10:01 hrs.
   
  WARNING: Negative pressures at 23:14:05 hrs.
   
  WARNING: Negative pressures at 23:23:06 hrs.
   
  WARNING: Negative pressures at 23:27:11 hrs.
   
  WARNING: Negative pressures at 23:36:14 hrs.
   
  WARNING: Negative pressures at 23:40:19 hrs.
   
  WARNING: Negative pressures at 23:49:22 hrs.
   
  WARNING: Negative pressures at 23:53:26 hrs.
   
  WARNING: Negative pressures at 24:00:00 hrs.
   
  WARNING: Negative pressures at 24:02:32 hrs.
   
  WARNING: Negative pressures at 24:06:34 hrs.
   
  WARNING: Negative pressures at 24:15:50 hrs.
   
  WARNING: Negative pressures at 24:19:52 hrs.
   
  WARNING: Negative pressures at 24:29:07 hrs.
   
  WARNING: Negative pressures at 24:33:09 hrs.
   
  WARNING: Negative pressures at 24:42:25 hrs.
   
  WARNING: Negative pressures at 24:46:27 hrs.
   
  WARNING: Negative pressures at 24:55:43 hrs.
   
  WARNING: Negative pressures at 24:59:45 hrs.
   
  WARNING: Negative pressures at 25:00:00 hrs.
   
  WARNING: Negative pressures at 25:08:59 hrs.
   
  WARNING: Negative pressures at 25:13:01 hrs.
   
  WARNING: Negative pressures at 25:22:13 hrs.
   
  WARNING: Negative pressures at 25:26:15 hrs.
   
  WARNING: Negative pressures at 25:35:27 hrs.
   
  WARNING: Negative pressures at 25:39:29 hrs.
   
  WARNING: Negative pressures at 25:48:42 hrs.
   
  WARNING: Negative pressures at 25:52:44 hrs.
   
  WARNING: Negative pressures at 26:00:00 hrs.
   
  WARNING: Negative pressures at 26:01:57 hrs.
   
  WARNING: Negative pressures at 26:06:00 hrs.
   
  WARNING: Negative pressures at 26:15:08 hrs.
   
  WARNING: Negative pressures at 26:19:11 hrs.
   
  WARNING: Negative pressures at 26:28:19 hrs.
   
  WARNING: Negative pressures at 26:32:22 hrs.
   
  WARNING: Negative pressures at 26:41:30 hrs.
   
  WARNING: Negative pressures at 26:45:33 hrs.
   
  WARNING: Negative pressures at 26:54:42 hrs.
   
  WARNING: Negative pressures at 26:58:45 hrs.
   
  WARNING: Negative pressures at 27:00:00 hrs.
   
  WARNING: Negative pressures at 27:07:53 hrs.
   
  WARNING: Negative pressures at 27:11:56 hrs.
   
  WARNING: Negative pressures at 27:21:04 hrs.
   
  WARNING: Negative pressures at 27:25:07 hrs.
   
  WARNING: Negative pressures at 27:34:14 hrs.
   
  WARNING: Negative pressures at 27:38:17 hrs.
   
  WARNING: Negative pressures at 27:47:24 hrs.
   
  WARNING: Negative pressures at 27:51:27 hrs.
   
  WARNING: Negative pressures at 28:00:00 hrs.
   
  WARNING: Negative pressures at 28:00:35 hrs.
   
  WARNING: Negative pressures at 28:04:24 hrs.
   
  WARNING: Negative pressures at 28:04:37 hrs.
   
  WARNING: Negative pressures at 28:35:04 hrs.
   
  WARNING: Negative pressures at 28:38:11 hrs.
   
  WARNING: Negative pressures at 29:00:00 hrs.
   
  WARNING: Negative pressures at 29:08:56 hrs.
   
  WARNING: Negative pressures at 29:12:02 hrs.
   
  WARNING: Negative pressures at 29:43:34 hrs.
   
  WARNING: Negative pressures at 29:46:40 hrs.
   
  WARNING: Negative pressures at 29:59:12 hrs.
   
  WARNING: Negative pressures at 30:00:00 hrs.
   
  WARNING: Negative pressures at 30:12:11 hrs.
   
  WARNING: Negative pressures at 30:15:38 hrs.
   
  WARNING: Negative pressures at 30:36:41 hrs.
   
  WARNING: Negative pressures at 30:40:08 hrs.
   
  WARNING: Negative pressures at 31:00:00 hrs.
   
  WARNING: Negative pressures at 31:00:56 hrs.
   
  WARNING: Negative pressures at 31:04:35 hrs.
   
  WARNING: Negative pressures at 31:21:04 hrs.
   
  WARNING: Negative pressures at 31:24:43 hrs.
   
  WARNING: Negative pressures at 31:41:13 hrs.
   
  WARNING: Negative pressures at 31:44:52 hrs.
   
  WARNING: Negative pressures at 32:00:00 hrs.
   
  WARNING: Negative pressures at 32:01:14 hrs.
   
  WARNING: Negative pressures at 32:04:58 hrs.
   
  WARNING: Negative pressures at 32:20:07 hrs.
   
  WARNING: Negative pressures at 32:23:51 hrs.
   
  WARNING: Negative pressures at 32:38:59 hrs.
   
  WARNING: Negative pressures at 32:42:43 hrs.
   
  WARNING: Negative pressures at 32:57:51 hrs.
   
  WARNING: Negative pressures at 33:00:00 hrs.
   
  WARNING: Negative pressures at 33:01:41 hrs.
   
  WARNING: Negative pressures at 33:08:59 hrs.
   
  WARNING: Negative pressures at 33:16:05 hrs.
   
  WARNING: Negative pressures at 33:19:51 hrs.
   
  WARNING: Negative pressures at 33:34:18 hrs.
   
  WARNING: Negative pressures at 33:38:04 hrs.
   
  WARNING: Negative pressures at 33:52:30 hrs.
   
  WARNING: Negative pressures at 33:56:16 hrs.
   
  WARNING: Negative pressures at 34:00:00 hrs.
   
  WARNING: Negative pressures at 34:10:56 hrs.
   
  WARNING: Negative pressures at 34:14:40 hrs.
   
  WARNING: Negative pressures at 34:29:22 hrs.
   
  WARNING: Negative pressures at 34:33:06 hrs.
   
  WARNING: Negative pressures at 34:47:49 hrs.
   
  WARNING: Negative pressures at 34:51:34 hrs.
   
  WARNING: Negative pressures at 35:00:00 hrs.
   
  WARNING: Negative pressures at 35:06:24 hrs.
   
  WARNING: Negative pressures at 35:10:08 hrs.
   
  WARNING: Negative pressures at 35:25:01 hrs.
   
  WARNING: Negative pressures at 35:28:45 hrs.
   
  WARNING: Negative pressures at 35:43:39 hrs.
   
  WARNING: Negative pressures at 35:47:23 hrs.
   
  WARNING: Negative pressures at 36:00:00 hrs.
   
  WARNING: Negative pressures at 36:02:22 hrs.
   
  WARNING: Negative pressures at 36:06:04 hrs.
   
  WARNING: Negative pressures at 36:13:23 hrs.
   
  WARNING: Negative pressures at 36:17:04 hrs.
   
  WARNING: Negative pressures at 36:22:15 hrs.
   
  WARNING: Negative pressures at 36:29:15 hrs.
   
  WARNING: Negative pressures at 36:34:26 hrs.
   
  WARNING: Negative pressures at 36:41:26 hrs.
   
  WARNING: Negative pressures at 36:42:19 hrs.
   
  WARNING: Negative pressures at 36:46:41 hrs.
   
  WARNING: Negative pressures at 36:53:40 hrs.
   
  WARNING: Negative pressures at 36:58:49 hrs.
   
  WARNING: Negative pressures at 37:00:00 hrs.
   
  WARNING: Negative pressures at 37:05:51 hrs.
   
  WARNING: Negative pressures at 37:10:58 hrs.
   
  WARNING: Negative pressures at 37:18:00 hrs.
   
  WARNING: Negative pressures at 37:23:07 hrs.
   
  WARNING: Negative pressures at 37:30:08 hrs.
   
  WARNING: Negative pressures at 37:35:15 hrs.
   
  WARNING: Negative pressures at 37:42:17 hrs.
   
  WARNING: Negative pressures at 37:47:24 hrs.
   
  WARNING: Negative pressures at 37:54:25 hrs.
   
  WARNING: Negative pressures at 37:59:32 hrs.
   
  WARNING: Negative pressures at 38:00:00 hrs.
   
  WARNING: Negative pressures at 38:06:41 hrs.
   
  WARNING: Negative pressures at 38:11:44 hrs.
   
  WARNING: Negative pressures at 38:18:52 hrs.
   
  WARNING: Negative pressures at 38:20:22 hrs.
   
  WARNING: Negative pressures at 38:24:30 hrs.
   
  WARNING: Negative pressures at 38:31:39 hrs.
   
  WARNING: Negative pressures at 38:36:42 hrs.
   
  WARNING: Negative pressures at 38:43:51 hrs.
   
  WARNING: Negative pressures at 38:48:54 hrs.
   
  WARNING: Negative pressures at 38:52:22 hrs.
   
  WARNING: Negative pressures at 38:56:04 hrs.
   
  WARNING: Negative pressures at 39:00:00 hrs.
   
  WARNING: Negative pressures at 39:01:14 hrs.
   
  WARNING: Negative pressures at 39:08:25 hrs.
   
  WARNING: Negative pressures at 39:13:26 hrs.
   
  WARNING: Negative pressures at 39:20:37 hrs.
   
  WARNING: Negative pressures at 39:22:35 hrs.
   
  WARNING: Negative pressures at 39:26:12 hrs.
   
  WARNING: Negative pressures at 39:33:23 hrs.
   
  WARNING: Negative pressures at 39:38:25 hrs.
   
  WARNING: Negative pressures at 39:45:37 hrs.
   
  WARNING: Negative pressures at 39:50:39 hrs.
   
  WARNING: Negative pressures at 39:52:24 hrs.
   
  WARNING: Negative pressures at 39:57:51 hrs.
   
  WARNING: Negative pressures at 40:00:00 hrs.
   
  WARNING: Negative pressures at 40:03:01 hrs.
   
  WARNING: Negative pressures at 40:10:12 hrs.
   
  WARNING: Negative pressures at 40:15:13 hrs.
   
  WARNING: Negative pressures at 40:22:25 hrs.
   
  WARNING: Negative pressures at 40:27:26 hrs.
   
  WARNING: Negative pressures at 40:34:38 hrs.
   
  WARNING: Negative pressures at 40:38:13 hrs.
   
  WARNING: Negative pressures at 40:40:00 hrs.
   
  WARNING: Negative pressures at 40:47:12 hrs.
   
  WARNING: Negative pressures at 40:52:13 hrs.
   
  WARNING: Negative pressures at 40:53:18 hrs.
   
  WARNING: Negative pressures at 40:59:26 hrs.
   
  WARNING: Negative pressures at 41:00:00 hrs.
   
  WARNING: Negative pressures at 41:04:28 hrs.
   
  WARNING: Negative pressures at 41:11:48 hrs.
   
  WARNING: Negative pressures at 41:16:46 hrs.
   
  WARNING: Negative pressures at 41:24:05 hrs.
   
  WARNING: Negative pressures at 41:29:02 hrs.
   
  WARNING: Negative pressures at 41:36:21 hrs.
   
  WARNING: Negative pressures at 41:41:18 hrs.
   
  WARNING: Negative pressures at 41:48:36 hrs.
   
  WARNING: Negative pressures at 41:53:33 hrs.
   
  WARNING: Negative pressures at 41:56:33 hrs.
   
  WARNING: Negative pressures at 41:57:09 hrs.
   
  WARNING: Negative pressures at 42:00:00 hrs.
   
  WARNING: Negative pressures at 42:00:54 hrs.
   
  WARNING: Negative pressures at 42:05:52 hrs.
   
  WARNING: Negative pressures at 42:13:15 hrs.
   
  WARNING: Negative pressures at 42:18:13 hrs.
   
  WARNING: Negative pressures at 42:24:47 hrs.
   
  WARNING: Negative pressures at 42:25:37 hrs.
   
  WARNING: Negative pressures at 42:30:35 hrs.
   
  WARNING: Negative pressures at 42:32:52 hrs.
   
  WARNING: Negative pressures at 42:38:00 hrs.
   
  WARNING: Negative pressures at 42:42:58 hrs.
   
  WARNING: Negative pressures at 42:50:22 hrs.
   
  WARNING: Negative pressures at 42:55:20 hrs.
   
  WARNING: Negative pressures at 43:00:00 hrs.
   
  WARNING: Negative pressures at 43:02:49 hrs.
   
  WARNING: Negative pressures at 43:07:41 hrs.
   
  WARNING: Negative pressures at 43:15:15 hrs.
   
  WARNING: Negative pressures at 43:20:07 hrs.
   
  WARNING: Negative pressures at 43:27:41 hrs.
   
  WARNING: Negative pressures at 43:32:33 hrs.
   
  WARNING: Negative pressures at 43:40:08 hrs.
   
  WARNING: Negative pressures at 43:45:00 hrs.
   
  WARNING: Negative pressures at 43:52:35 hrs.
   
  WARNING: Negative pressures at 43:57:27 hrs.
   
  WARNING: Negative pressures at 44:00:00 hrs.
   
  WARNING: Negative pressures at 44:05:22 hrs.
   
  WARNING: Negative pressures at 44:10:01 hrs.
   
  WARNING: Negative pressures at 44:18:04 hrs.
   
  WARNING: Negative pressures at 44:22:43 hrs.
   
  WARNING: Negative pressures at 44:30:46 hrs.
   
  WARNING: Negative pressures at 44:35:25 hrs.
   
  WARNING: Negative pressures at 44:43:28 hrs.
   
  WARNING: Negative pressures at 44:48:07 hrs.
   
  WARNING: Negative pressures at 44:56:11 hrs.
   
  WARNING: Negative pressures at 45:00:00 hrs.
   
  WARNING: Negative pressures at 45:00:53 hrs.
   
  WARNING: Negative pressures at 45:04:04 hrs.
   
  WARNING: Negative pressures at 45:09:23 hrs.
   
  WARNING: Negative pressures at 45:09:48 hrs.
   
  WARNING: Negative pressures at 45:13:41 hrs.
   
  WARNING: Negative pressures at 45:13:59 hrs.
   
  WARNING: Negative pressures at 45:14:37 hrs.
   
  WARNING: Negative pressures at 45:14:40 hrs.
   
  WARNING: Negative pressures at 45:22:10 hrs.
   
  WARNING: Negative pressures at 45:22:36 hrs.
   
  WARNING: Negative pressures at 45:26:26 hrs.
   
  WARNING: Negative pressures at 45:26:39 hrs.
   
  WARNING: Negative pressures at 45:34:54 hrs.
   
  WARNING: Negative pressures at 45:35:23 hrs.
   
  WARNING: Negative pressures at 45:39:11 hrs.
   
  WARNING: Negative pressures at 45:39:24 hrs.
   
  WARNING: Negative pressures at 45:47:40 hrs.
   
  WARNING: Negative pressures at 45:48:09 hrs.
   
  WARNING: Negative pressures at 45:51:57 hrs.
   
  WARNING: Negative pressures at 45:52:10 hrs.
   
  WARNING: Negative pressures at 46:00:00 hrs.
   
  WARNING: Negative pressures at 46:00:26 hrs.
   
  WARNING: Negative pressures at 46:00:28 hrs.
   
  WARNING: Negative pressures at 46:04:36 hrs.
   
  WARNING: Negative pressures at 46:04:41 hrs.
   
  WARNING: Negative pressures at 46:13:21 hrs.
   
  WARNING: Negative pressures at 46:13:32 hrs.
   
  WARNING: Negative pressures at 46:17:31 hrs.
   
  WARNING: Negative pressures at 46:17:36 hrs.
   
  WARNING: Negative pressures at 46:26:18 hrs.
   
  WARNING: Negative pressures at 46:26:29 hrs.
   
  WARNING: Negative pressures at 46:30:28 hrs.
   
  WARNING: Negative pressures at 46:30:33 hrs.
   
  WARNING: Negative pressures at 46:39:15 hrs.
   
  WARNING: Negative pressures at 46:39:26 hrs.
   
  WARNING: Negative pressures at 46:43:25 hrs.
   
  WARNING: Negative pressures at 46:43:30 hrs.
   
  WARNING: Negative pressures at 46:52:12 hrs.
   
  WARNING: Negative pressures at 46:52:23 hrs.
   
  WARNING: Negative pressures at 46:56:22 hrs.
   
  WARNING: Negative pressures at 46:56:27 hrs.
   
  WARNING: Negative pressures at 47:00:00 hrs.
   
  WARNING: Negative pressures at 47:00:04 hrs.
   
  WARNING: Negative pressures at 47:05:19 hrs.
   
  WARNING: Negative pressures at 47:09:24 hrs.
   
  WARNING: Negative pressures at 47:18:27 hrs.
   
  WARNING: Negative pressures at 47:22:32 hrs.
   
  WARNING: Negative pressures at 47:31:35 hrs.
   
  WARNING: Negative pressures at 47:35:40 hrs.
   
  WARNING: Negative pressures at 47:44:43 hrs.
   
  WARNING: Negative pressures at 47:48:48 hrs.
   
  WARNING: Negative pressures at 47:57:51 hrs.
   
  WARNING: Negative pressures at 48:00:00 hrs.
   
  WARNING: Negative pressures at 48:02:00 hrs.
   
  WARNING: Negative pressures at 48:11:14 hrs.
   
  WARNING: Negative pressures at 48:15:16 hrs.
   
  WARNING: Negative pressures at 48:24:32 hrs.
   
  WARNING: Negative pressures at 48:28:34 hrs.
   
  WARNING: Negative pressures at 48:37:49 hrs.
   
  WARNING: Negative pressures at 48:41:51 hrs.
   
  WARNING: Negative pressures at 48:51:07 hrs.
   
  WARNING: Negative pressures at 48:55:09 hrs.
   
  WARNING: Negative pressures at 49:00:00 hrs.
   
  WARNING: Negative pressures at 49:04:25 hrs.
   
  WARNING: Negative pressures at 49:08:27 hrs.
   
  WARNING: Negative pressures at 49:17:39 hrs.
   
  WARNING: Negative pressures at 49:21:41 hrs.
   
  WARNING: Negative pressures at 49:30:53 hrs.
   
  WARNING: Negative pressures at 49:34:55 hrs.
   
  WARNING: Negative pressures at 49:44:07 hrs.
   
  WARNING: Negative pressures at 49:48:09 hrs.
   
  WARNING: Negative pressures at 49:57:22 hrs.
   
  WARNING: Negative pressures at 50:00:00 hrs.
   
  WARNING: Negative pressures at 50:01:30 hrs.
   
  WARNING: Negative pressures at 50:10:38 hrs.
   
  WARNING: Negative pressures at 50:14:41 hrs.
   
  WARNING: Negative pressures at 50:23:49 hrs.
   
  WARNING: Negative pressures at 50:27:52 hrs.
   
  WARNING: Negative pressures at 50:37:00 hrs.
   
  WARNING: Negative pressures at 50:41:03 hrs.
   
  WARNING: Negative pressures at 50:50:11 hrs.
   
  WARNING: Negative pressures at 50:54:14 hrs.
   
  WARNING: Negative pressures at 51:00:00 hrs.
   
  WARNING: Negative pressures at 51:03:24 hrs.
   
  WARNING: Negative pressures at 51:07:28 hrs.
   
  WARNING: Negative pressures at 51:16:37 hrs.
   
  WARNING: Negative pressures at 51:20:40 hrs.
   
  WARNING: Negative pressures at 51:29:47 hrs.
   
  WARNING: Negative pressures at 51:33:50 hrs.
   
  WARNING: Negative pressures at 51:42:57 hrs.
   
  WARNING: Negative pressures at 51:47:00 hrs.
   
  WARNING: Negative pressures at 51:56:08 hrs.
   
  WARNING: Negative pressures at 52:00:00 hrs.
   
  WARNING: Negative pressures at 52:00:13 hrs.
   
  WARNING: Negative pressures at 52:09:18 hrs.
   
  WARNING: Negative pressures at 52:13:23 hrs.
   
  WARNING: Negative pressures at 52:22:28 hrs.
   
  WARNING: Negative pressures at 52:24:32 hrs.
   
  WARNING: Negative pressures at 52:26:07 hrs.
   
  WARNING: Negative pressures at 52:56:28 hrs.
   
  WARNING: Negative pressures at 52:59:35 hrs.
   
  WARNING: Negative pressures at 53:00:00 hrs.
   
  WARNING: Negative pressures at 53:31:07 hrs.
   
  WARNING: Negative pressures at 53:34:13 hrs.
   
  WARNING: Negative pressures at 54:00:00 hrs.
   
  WARNING: Negative pressures at 54:03:51 hrs.
   
  WARNING: Negative pressures at 54:07:17 hrs.
   
  WARNING: Negative pressures at 54:28:23 hrs.
   
  WARNING: Negative pressures at 54:31:49 hrs.
   
  WARNING: Negative pressures at 54:52:56 hrs.
   
  WARNING: Negative pressures at 54:56:22 hrs.
   
  WARNING: Negative pressures at 55:00:00 hrs.
   
  WARNING: Negative pressures at 55:13:40 hrs.
   
  WARNING: Negative pressures at 55:17:17 hrs.
   
  WARNING: Negative pressures at 55:33:46 hrs.
   
  WARNING: Negative pressures at 55:37:23 hrs.
   
  WARNING: Negative pressures at 55:53:51 hrs.
   
  WARNING: Negative pressures at 55:57:28 hrs.
   
  WARNING: Negative pressures at 56:00:00 hrs.
   
  WARNING: Negative pressures at 56:12:48 hrs.
   
  WARNING: Negative pressures at 56:16:31 hrs.
   
  WARNING: Negative pressures at 56:31:41 hrs.
   
  WARNING: Negative pressures at 56:35:24 hrs.
   
  WARNING: Negative pressures at 56:50:34 hrs.
   
  WARNING: Negative pressures at 56:54:17 hrs.
   
  WARNING: Negative pressures at 57:00:00 hrs.
   
  WARNING: Negative pressures at 57:09:00 hrs.
   
  WARNING: Negative pressures at 57:12:46 hrs.
   
  WARNING: Negative pressures at 57:27:13 hrs.
   
  WARNING: Negative pressures at 57:30:59 hrs.
   
  WARNING: Negative pressures at 57:45:25 hrs.
   
  WARNING: Negative pressures at 57:49:11 hrs.
   
  WARNING: Negative pressures at 58:00:00 hrs.
   
  WARNING: Negative pressures at 58:03:42 hrs.
   
  WARNING: Negative pressures at 58:07:26 hrs.
   
  WARNING: Negative pressures at 58:22:09 hrs.
   
  WARNING: Negative pressures at 58:24:28 hrs.
   
  WARNING: Negative pressures at 58:25:59 hrs.
   
  WARNING: Negative pressures at 58:40:44 hrs.
   
  WARNING: Negative pressures at 58:44:30 hrs.
   
  WARNING: Negative pressures at 58:59:15 hrs.
   
  WARNING: Negative pressures at 59:00:00 hrs.
   
  WARNING: Negative pressures at 59:03:03 hrs.
   
  WARNING: Negative pressures at 59:17:55 hrs.
   
  WARNING: Negative pressures at 59:21:40 hrs.
   
  WARNING: Negative pressures at 59:36:33 hrs.
   
  WARNING: Negative pressures at 59:40:18 hrs.
   
  WARNING: Negative pressures at 59:55:10 hrs.
   
  WARNING: Negative pressures at 59:58:55 hrs.
   
  WARNING: Negative pressures at 60:00:00 hrs.
   
  WARNING: Negative pressures at 60:14:15 hrs.
   
  WARNING: Negative pressures at 60:17:58 hrs.
   
  WARNING: Negative pressures at 60:23:35 hrs.
   
  WARNING: Negative pressures at 60:28:01 hrs.
   
  WARNING: Negative pressures at 60:33:14 hrs.
   
  WARNING: Negative pressures at 60:40:14 hrs.
   
  WARNING: Negative pressures at 60:45:27 hrs.
   
  WARNING: Negative pressures at 60:52:26 hrs.
   
  WARNING: Negative pressures at 60:57:39 hrs.
   
  WARNING: Negative pressures at 61:00:00 hrs.
   
  WARNING: Negative pressures at 61:04:41 hrs.
   
  WARNING: Negative pressures at 61:09:52 hrs.
   
  WARNING: Negative pressures at 61:16:53 hrs.
   
  WARNING: Negative pressures at 61:22:04 hrs.
   
  WARNING: Negative pressures at 61:29:06 hrs.
   
  WARNING: Negative pressures at 61:34:18 hrs.
   
  WARNING: Negative pressures at 61:41:20 hrs.
   
  WARNING: Negative pressures at 61:46:31 hrs.
   
  WARNING: Negative pressures at 61:48:35 hrs.
   
  WARNING: Negative pressures at 61:53:34 hrs.
   
  WARNING: Negative pressures at 61:56:23 hrs.
   
  WARNING: Negative pressures at 61:58:52 hrs.
   
  WARNING: Negative pressures at 62:00:00 hrs.
   
  WARNING: Negative pressures at 62:02:22 hrs.
   
  WARNING: Negative pressures at 62:06:01 hrs.
   
  WARNING: Negative pressures at 62:11:04 hrs.
   
  WARNING: Negative pressures at 62:18:13 hrs.
   
  WARNING: Negative pressures at 62:23:16 hrs.
   
  WARNING: Negative pressures at 62:30:25 hrs.
   
  WARNING: Negative pressures at 62:35:28 hrs.
   
  WARNING: Negative pressures at 62:42:21 hrs.
   
  WARNING: Negative pressures at 62:42:37 hrs.
   
  WARNING: Negative pressures at 62:47:40 hrs.
   
  WARNING: Negative pressures at 62:54:49 hrs.
   
  WARNING: Negative pressures at 62:59:52 hrs.
   
  WARNING: Negative pressures at 63:00:00 hrs.
   
  WARNING: Negative pressures at 63:03:31 hrs.
   
  WARNING: Negative pressures at 63:07:04 hrs.
   
  WARNING: Negative pressures at 63:12:06 hrs.
   
  WARNING: Negative pressures at 63:19:18 hrs.
   
  WARNING: Negative pressures at 63:24:20 hrs.
   
  WARNING: Negative pressures at 63:31:31 hrs.
   
  WARNING: Negative pressures at 63:32:53 hrs.
   
  WARNING: Negative pressures at 63:37:08 hrs.
   
  WARNING: Negative pressures at 63:44:19 hrs.
   
  WARNING: Negative pressures at 63:49:20 hrs.
   
  WARNING: Negative pressures at 63:56:31 hrs.
   
  WARNING: Negative pressures at 64:00:00 hrs.
   
  WARNING: Negative pressures at 64:01:41 hrs.
   
  WARNING: Negative pressures at 64:08:08 hrs.
   
  WARNING: Negative pressures at 64:08:53 hrs.
   
  WARNING: Negative pressures at 64:13:54 hrs.
   
  WARNING: Negative pressures at 64:14:25 hrs.
   
  WARNING: Negative pressures at 64:21:06 hrs.
   
  WARNING: Negative pressures at 64:26:07 hrs.
   
  WARNING: Negative pressures at 64:33:19 hrs.
   
  WARNING: Negative pressures at 64:38:20 hrs.
   
  WARNING: Negative pressures at 64:45:32 hrs.
   
  WARNING: Negative pressures at 64:50:33 hrs.
   
  WARNING: Negative pressures at 64:57:45 hrs.
   
  WARNING: Negative pressures at 65:00:00 hrs.
   
  WARNING: Negative pressures at 65:02:53 hrs.
   
  WARNING: Negative pressures at 65:10:11 hrs.
   
  WARNING: Negative pressures at 65:13:35 hrs.
   
  WARNING: Negative pressures at 65:15:29 hrs.
   
  WARNING: Negative pressures at 65:22:48 hrs.
   
  WARNING: Negative pressures at 65:27:46 hrs.
   
  WARNING: Negative pressures at 65:33:50 hrs.
   
  WARNING: Negative pressures at 65:35:06 hrs.
   
  WARNING: Negative pressures at 65:40:03 hrs.
   
  WARNING: Negative pressures at 65:47:21 hrs.
   
  WARNING: Negative pressures at 65:52:51 hrs.
   
  WARNING: Negative pressures at 66:00:00 hrs.
   
  WARNING: Negative pressures at 66:00:10 hrs.
   
  WARNING: Negative pressures at 66:05:05 hrs.
   
  WARNING: Negative pressures at 66:12:29 hrs.
   
  WARNING: Negative pressures at 66:17:24 hrs.
   
  WARNING: Negative pressures at 66:24:48 hrs.
   
  WARNING: Negative pressures at 66:29:43 hrs.
   
  WARNING: Negative pressures at 66:37:07 hrs.
   
  WARNING: Negative pressures at 66:42:02 hrs.
   
  WARNING: Negative pressures at 66:49:26 hrs.
   
  WARNING: Negative pressures at 66:54:21 hrs.
   
  WARNING: Negative pressures at 66:55:26 hrs.
   
  WARNING: Negative pressures at 67:00:00 hrs.
   
  WARNING: Negative pressures at 67:01:49 hrs.
   
  WARNING: Negative pressures at 67:06:38 hrs.
   
  WARNING: Negative pressures at 67:14:12 hrs.
   
  WARNING: Negative pressures at 67:19:01 hrs.
   
  WARNING: Negative pressures at 67:26:36 hrs.
   
  WARNING: Negative pressures at 67:31:25 hrs.
   
  WARNING: Negative pressures at 67:38:59 hrs.
   
  WARNING: Negative pressures at 67:43:48 hrs.
   
  WARNING: Negative pressures at 67:51:23 hrs.
   
  WARNING: Negative pressures at 67:56:12 hrs.
   
  WARNING: Negative pressures at 68:00:00 hrs.
   
  WARNING: Negative pressures at 68:04:03 hrs.
   
  WARNING: Negative pressures at 68:08:40 hrs.
   
  WARNING: Negative pressures at 68:16:44 hrs.
   
  WARNING: Negative pressures at 68:21:21 hrs.
   
  WARNING: Negative pressures at 68:29:25 hrs.
   
  WARNING: Negative pressures at 68:34:01 hrs.
   
  WARNING: Negative pressures at 68:42:04 hrs.
   
  WARNING: Negative pressures at 68:46:40 hrs.
   
  WARNING: Negative pressures at 68:54:43 hrs.
   
  WARNING: Negative pressures at 68:58:45 hrs.
   
  WARNING: Negative pressures at 68:59:20 hrs.
   
  WARNING: Negative pressures at 68:59:24 hrs.
   
  WARNING: Negative pressures at 69:00:00 hrs.
   
  WARNING: Negative pressures at 69:00:04 hrs.
   
  WARNING: Negative pressures at 69:07:46 hrs.
   
  WARNING: Negative pressures at 69:08:13 hrs.
   
  WARNING: Negative pressures at 69:12:02 hrs.
   
  WARNING: Negative pressures at 69:12:15 hrs.
   
  WARNING: Negative pressures at 69:20:30 hrs.
   
  WARNING: Negative pressures at 69:20:59 hrs.
   
  WARNING: Negative pressures at 69:24:47 hrs.
   
  WARNING: Negative pressures at 69:25:00 hrs.
   
  WARNING: Negative pressures at 69:33:16 hrs.
   
  WARNING: Negative pressures at 69:33:45 hrs.
   
  WARNING: Negative pressures at 69:37:33 hrs.
   
  WARNING: Negative pressures at 69:37:46 hrs.
   
  WARNING: Negative pressures at 69:46:02 hrs.
   
  WARNING: Negative pressures at 69:46:31 hrs.
   
  WARNING: Negative pressures at 69:50:19 hrs.
   
  WARNING: Negative pressures at 69:50:32 hrs.
   
  WARNING: Negative pressures at 69:58:49 hrs.
   
  WARNING: Negative pressures at 69:59:18 hrs.
   
  WARNING: Negative pressures at 70:00:00 hrs.
   
  WARNING: Negative pressures at 70:00:02 hrs.
   
  WARNING: Negative pressures at 70:03:06 hrs.
   
  WARNING: Negative pressures at 70:03:10 hrs.
   
  WARNING: Negative pressures at 70:11:53 hrs.
   
  WARNING: Negative pressures at 70:12:04 hrs.
   
  WARNING: Negative pressures at 70:16:03 hrs.
   
  WARNING: Negative pressures at 70:16:08 hrs.
   
  WARNING: Negative pressures at 70:24:49 hrs.
   
  WARNING: Negative pressures at 70:25:00 hrs.
   
  WARNING: Negative pressures at 70:28:59 hrs.
   
  WARNING: Negative pressures at 70:29:04 hrs.
   
  WARNING: Negative pressures at 70:37:46 hrs.
   
  WARNING: Negative pressures at 70:37:57 hrs.
   
  WARNING: Negative pressures at 70:41:56 hrs.
   
  WARNING: Negative pressures at 70:42:01 hrs.
   
  WARNING: Negative pressures at 70:50:43 hrs.
   
  WARNING: Negative pressures at 70:50:54 hrs.
   
  WARNING: Negative pressures at 70:54:53 hrs.
   
  WARNING: Negative pressures at 70:54:58 hrs.
   
  WARNING: Negative pressures at 71:00:00 hrs.
   
  WARNING: Negative pressures at 71:00:06 hrs.
   
  WARNING: Negative pressures at 71:03:48 hrs.
   
  WARNING: Negative pressures at 71:07:53 hrs.
   
  WARNING: Negative pressures at 71:16:55 hrs.
   
  WARNING: Negative pressures at 71:20:59 hrs.
   
  WARNING: Negative pressures at 71:30:00 hrs.
   
  WARNING: Negative pressures at 71:34:05 hrs.
   
  WARNING: Negative pressures at 71:43:08 hrs.
   
  WARNING: Negative pressures at 71:47:13 hrs.
   
  WARNING: Negative pressures at 71:56:16 hrs.
   
  WARNING: Negative pressures at 72:00:00 hrs.
   
  WARNING: Negative pressures at 72:00:22 hrs.
   
  WARNING: Negative pressures at 72:09:36 hrs.
   
  WARNING: Negative pressures at 72:13:38 hrs.
   
  WARNING: Negative pressures at 72:22:53 hrs.
   
  WARNING: Negative pressures at 72:26:55 hrs.
   
  WARNING: Negative pressures at 72:36:11 hrs.
   
  WARNING: Negative pressures at 72:40:13 hrs.
   
  WARNING: Negative pressures at 72:49:28 hrs.
   
  WARNING: Negative pressures at 72:53:29 hrs.
   
  WARNING: Negative pressures at 73:00:00 hrs.
   
  WARNING: Negative pressures at 73:02:43 hrs.
   
  WARNING: Negative pressures at 73:06:45 hrs.
   
  WARNING: Negative pressures at 73:15:57 hrs.
   
  WARNING: Negative pressures at 73:19:59 hrs.
   
  WARNING: Negative pressures at 73:24:48 hrs.
   
  WARNING: Negative pressures at 73:29:13 hrs.
   
  WARNING: Negative pressures at 73:33:17 hrs.
   
  WARNING: Negative pressures at 73:42:30 hrs.
   
  WARNING: Negative pressures at 73:46:34 hrs.
   
  WARNING: Negative pressures at 73:55:47 hrs.
   
  WARNING: Negative pressures at 73:59:51 hrs.
   
  WARNING: Negative pressures at 74:00:00 hrs.
   
  WARNING: Negative pressures at 74:09:00 hrs.
   
  WARNING: Negative pressures at 74:09:01 hrs.
   
  WARNING: Negative pressures at 74:13:05 hrs.
   
  WARNING: Negative pressures at 74:22:14 hrs.
   
  WARNING: Negative pressures at 74:26:19 hrs.
   
  WARNING: Negative pressures at 74:35:27 hrs.
   
  WARNING: Negative pressures at 74:39:32 hrs.
   
  WARNING: Negative pressures at 74:48:42 hrs.
   
  WARNING: Negative pressures at 74:52:47 hrs.
   
  WARNING: Negative pressures at 75:00:00 hrs.
   
  WARNING: Negative pressures at 75:01:57 hrs.
   
  WARNING: Negative pressures at 75:06:16 hrs.
   
  WARNING: Negative pressures at 75:15:24 hrs.
   
  WARNING: Negative pressures at 75:15:26 hrs.
   
  WARNING: Negative pressures at 75:19:29 hrs.
   
  WARNING: Negative pressures at 75:19:30 hrs.
   
  WARNING: Negative pressures at 75:28:36 hrs.
   
  WARNING: Negative pressures at 75:28:38 hrs.
   
  WARNING: Negative pressures at 75:32:41 hrs.
   
  WARNING: Negative pressures at 75:32:42 hrs.
   
  WARNING: Negative pressures at 75:41:49 hrs.
   
  WARNING: Negative pressures at 75:41:51 hrs.
   
  WARNING: Negative pressures at 75:45:54 hrs.
   
  WARNING: Negative pressures at 75:45:55 hrs.
   
  WARNING: Negative pressures at 75:52:21 hrs.
   
  WARNING: Negative pressures at 75:52:22 hrs.
   
  WARNING: Negative pressures at 75:55:03 hrs.
   
  WARNING: Negative pressures at 75:59:06 hrs.
   
  WARNING: Negative pressures at 76:00:00 hrs.
   
  WARNING: Negative pressures at 76:08:10 hrs.
   
  WARNING: Negative pressures at 76:12:15 hrs.
   
  WARNING: Negative pressures at 76:21:20 hrs.
   
  WARNING: Negative pressures at 76:25:25 hrs.
   
  WARNING: Negative pressures at 76:27:02 hrs.
   
  WARNING: Negative pressures at 76:52:04 hrs.
   
  WARNING: Negative pressures at 76:55:11 hrs.
   
  WARNING: Negative pressures at 77:00:00 hrs.
   
  WARNING: Negative pressures at 77:26:34 hrs.
   
  WARNING: Negative pressures at 77:29:40 hrs.
   
  WARNING: Negative pressures at 78:00:00 hrs.
   
  WARNING: Negative pressures at 78:00:48 hrs.
   
  WARNING: Negative pressures at 78:04:14 hrs.
   
  WARNING: Negative pressures at 78:25:21 hrs.
   
  WARNING: Negative pressures at 78:28:47 hrs.
   
  WARNING: Negative pressures at 78:49:53 hrs.
   
  WARNING: Negative pressures at 78:53:19 hrs.
   
  WARNING: Negative pressures at 79:00:00 hrs.
   
  WARNING: Negative pressures at 79:11:18 hrs.
   
  WARNING: Negative pressures at 79:14:55 hrs.
   
  WARNING: Negative pressures at 79:31:23 hrs.
   
  WARNING: Negative pressures at 79:35:00 hrs.
   
  WARNING: Negative pressures at 79:51:29 hrs.
   
  WARNING: Negative pressures at 79:55:06 hrs.
   
  WARNING: Negative pressures at 80:00:00 hrs.
   
  WARNING: Negative pressures at 80:10:37 hrs.
   
  WARNING: Negative pressures at 80:14:20 hrs.
   
  WARNING: Negative pressures at 80:29:30 hrs.
   
  WARNING: Negative pressures at 80:33:13 hrs.
   
  WARNING: Negative pressures at 80:48:23 hrs.
   
  WARNING: Negative pressures at 80:52:06 hrs.
   
  WARNING: Negative pressures at 81:00:00 hrs.
   
  WARNING: Negative pressures at 81:06:56 hrs.
   
  WARNING: Negative pressures at 81:10:42 hrs.
   
  WARNING: Negative pressures at 81:25:08 hrs.
   
  WARNING: Negative pressures at 81:28:54 hrs.
   
  WARNING: Negative pressures at 81:43:21 hrs.
   
  WARNING: Negative pressures at 81:47:07 hrs.
   
  WARNING: Negative pressures at 82:00:00 hrs.
   
  WARNING: Negative pressures at 82:01:36 hrs.
   
  WARNING: Negative pressures at 82:05:21 hrs.
   
  WARNING: Negative pressures at 82:20:07 hrs.
   
  WARNING: Negative pressures at 82:23:51 hrs.
   
  WARNING: Negative pressures at 82:38:34 hrs.
   
  WARNING: Negative pressures at 82:42:19 hrs.
   
  WARNING: Negative pressures at 82:57:05 hrs.
   
  WARNING: Negative pressures at 83:00:00 hrs.
   
  WARNING: Negative pressures at 83:00:53 hrs.
   
  WARNING: Negative pressures at 83:15:47 hrs.
   
  WARNING: Negative pressures at 83:19:31 hrs.
   
  WARNING: Negative pressures at 83:34:25 hrs.
   
  WARNING: Negative pressures at 83:38:09 hrs.
   
  WARNING: Negative pressures at 83:53:03 hrs.
   
  WARNING: Negative pressures at 83:56:47 hrs.
   
  WARNING: Negative pressures at 84:00:00 hrs.
   
  WARNING: Negative pressures at 84:08:07 hrs.
   
  WARNING: Negative pressures at 84:12:05 hrs.
   
  WARNING: Negative pressures at 84:15:46 hrs.
   
  WARNING: Negative pressures at 84:24:51 hrs.
   
  WARNING: Negative pressures at 84:27:43 hrs.
   
  WARNING: Negative pressures at 84:32:51 hrs.
   
  WARNING: Negative pressures at 84:39:49 hrs.
   
  WARNING: Negative pressures at 84:44:57 hrs.
   
  WARNING: Negative pressures at 84:51:55 hrs.
   
  WARNING: Negative pressures at 84:57:03 hrs.
   
  WARNING: Negative pressures at 85:00:00 hrs.
   
  WARNING: Negative pressures at 85:04:04 hrs.
   
  WARNING: Negative pressures at 85:09:11 hrs.
   
  WARNING: Negative pressures at 85:16:13 hrs.
   
  WARNING: Negative pressures at 85:21:20 hrs.
   
  WARNING: Negative pressures at 85:28:21 hrs.
   
  WARNING: Negative pressures at 85:33:28 hrs.
   
  WARNING: Negative pressures at 85:40:30 hrs.
   
  WARNING: Negative pressures at 85:45:15 hrs.
   
  WARNING: Negative pressures at 85:45:40 hrs.
   
  WARNING: Negative pressures at 85:52:42 hrs.
   
  WARNING: Negative pressures at 85:57:53 hrs.
   
  WARNING: Negative pressures at 86:00:00 hrs.
   
  WARNING: Negative pressures at 86:05:01 hrs.
   
  WARNING: Negative pressures at 86:10:07 hrs.
   
  WARNING: Negative pressures at 86:17:15 hrs.
   
  WARNING: Negative pressures at 86:22:21 hrs.
   
  WARNING: Negative pressures at 86:29:30 hrs.
   
  WARNING: Negative pressures at 86:34:36 hrs.
   
  WARNING: Negative pressures at 86:41:44 hrs.
   
  WARNING: Negative pressures at 86:46:50 hrs.
   
  WARNING: Negative pressures at 86:53:59 hrs.
   
  WARNING: Negative pressures at 86:59:05 hrs.
   
  WARNING: Negative pressures at 87:00:00 hrs.
   
  WARNING: Negative pressures at 87:06:16 hrs.
   
  WARNING: Negative pressures at 87:11:21 hrs.
   
  WARNING: Negative pressures at 87:18:32 hrs.
   
  WARNING: Negative pressures at 87:23:37 hrs.
   
  WARNING: Negative pressures at 87:30:48 hrs.
   
  WARNING: Negative pressures at 87:35:53 hrs.
   
  WARNING: Negative pressures at 87:40:54 hrs.
   
  WARNING: Negative pressures at 87:43:05 hrs.
   
  WARNING: Negative pressures at 87:48:10 hrs.
   
  WARNING: Negative pressures at 87:55:22 hrs.
   
  WARNING: Negative pressures at 87:56:12 hrs.
   
  WARNING: Negative pressures at 88:00:00 hrs.
   
  WARNING: Negative pressures at 88:00:57 hrs.
   
  WARNING: Negative pressures at 88:08:09 hrs.
   
  WARNING: Negative pressures at 88:13:13 hrs.
   
  WARNING: Negative pressures at 88:20:25 hrs.
   
  WARNING: Negative pressures at 88:23:10 hrs.
   
  WARNING: Negative pressures at 88:25:55 hrs.
   
  WARNING: Negative pressures at 88:33:07 hrs.
   
  WARNING: Negative pressures at 88:38:11 hrs.
   
  WARNING: Negative pressures at 88:42:47 hrs.
   
  WARNING: Negative pressures at 88:45:24 hrs.
   
  WARNING: Negative pressures at 88:50:29 hrs.
   
  WARNING: Negative pressures at 88:57:42 hrs.
   
  WARNING: Negative pressures at 89:00:00 hrs.
   
  WARNING: Negative pressures at 89:01:43 hrs.
   
  WARNING: Negative pressures at 89:03:04 hrs.
   
  WARNING: Negative pressures at 89:10:22 hrs.
   
  WARNING: Negative pressures at 89:13:15 hrs.
   
  WARNING: Negative pressures at 89:15:45 hrs.
   
  WARNING: Negative pressures at 89:23:04 hrs.
   
  WARNING: Negative pressures at 89:28:05 hrs.
   
  WARNING: Negative pressures at 89:34:36 hrs.
   
  WARNING: Negative pressures at 89:35:25 hrs.
   
  WARNING: Negative pressures at 89:38:12 hrs.
   
  WARNING: Negative pressures at 89:40:33 hrs.
   
  WARNING: Negative pressures at 89:42:30 hrs.
   
  WARNING: Negative pressures at 89:47:52 hrs.
   
  WARNING: Negative pressures at 89:52:49 hrs.
   
  WARNING: Negative pressures at 90:00:00 hrs.
   
  WARNING: Negative pressures at 90:00:08 hrs.
   
  WARNING: Negative pressures at 90:05:03 hrs.
   
  WARNING: Negative pressures at 90:12:27 hrs.
   
  WARNING: Negative pressures at 90:17:22 hrs.
   
  WARNING: Negative pressures at 90:24:46 hrs.
   
  WARNING: Negative pressures at 90:29:41 hrs.
   
  WARNING: Negative pressures at 90:37:05 hrs.
   
  WARNING: Negative pressures at 90:42:00 hrs.
   
  WARNING: Negative pressures at 90:48:06 hrs.
   
  WARNING: Negative pressures at 90:49:25 hrs.
   
  WARNING: Negative pressures at 90:54:20 hrs.
   
  WARNING: Negative pressures at 91:00:00 hrs.
   
  WARNING: Negative pressures at 91:01:47 hrs.
   
  WARNING: Negative pressures at 91:06:36 hrs.
   
  WARNING: Negative pressures at 91:14:10 hrs.
   
  WARNING: Negative pressures at 91:18:59 hrs.
   
  WARNING: Negative pressures at 91:26:33 hrs.
   
  WARNING: Negative pressures at 91:31:22 hrs.
   
  WARNING: Negative pressures at 91:38:57 hrs.
   
  WARNING: Negative pressures at 91:43:46 hrs.
   
  WARNING: Negative pressures at 91:51:21 hrs.
   
  WARNING: Negative pressures at 91:56:10 hrs.
   
  WARNING: Negative pressures at 92:00:00 hrs.
   
  WARNING: Negative pressures at 92:04:00 hrs.
   
  WARNING: Negative pressures at 92:08:36 hrs.
   
  WARNING: Negative pressures at 92:16:39 hrs.
   
  WARNING: Negative pressures at 92:21:16 hrs.
   
  WARNING: Negative pressures at 92:29:20 hrs.
   
  WARNING: Negative pressures at 92:33:57 hrs.
   
  WARNING: Negative pressures at 92:42:01 hrs.
   
  WARNING: Negative pressures at 92:46:37 hrs.
   
  WARNING: Negative pressures at 92:54:40 hrs.
   
  WARNING: Negative pressures at 92:59:16 hrs.
   
  WARNING: Negative pressures at 93:00:00 hrs.
   
  WARNING: Negative pressures at 93:02:29 hrs.
   
  WARNING: Negative pressures at 93:07:43 hrs.
   
  WARNING: Negative pressures at 93:08:01 hrs.
   
  WARNING: Negative pressures at 93:11:58 hrs.
   
  WARNING: Negative pressures at 93:12:12 hrs.
   
  WARNING: Negative pressures at 93:20:26 hrs.
   
  WARNING: Negative pressures at 93:20:55 hrs.
   
  WARNING: Negative pressures at 93:24:43 hrs.
   
  WARNING: Negative pressures at 93:24:56 hrs.
   
  WARNING: Negative pressures at 93:33:12 hrs.
   
  WARNING: Negative pressures at 93:33:41 hrs.
   
  WARNING: Negative pressures at 93:37:29 hrs.
   
  WARNING: Negative pressures at 93:37:42 hrs.
   
  WARNING: Negative pressures at 93:45:59 hrs.
   
  WARNING: Negative pressures at 93:46:28 hrs.
   
  WARNING: Negative pressures at 93:50:16 hrs.
   
  WARNING: Negative pressures at 93:50:29 hrs.
   
  WARNING: Negative pressures at 93:58:45 hrs.
   
  WARNING: Negative pressures at 93:59:14 hrs.
   
  WARNING: Negative pressures at 94:00:00 hrs.
   
  WARNING: Negative pressures at 94:00:03 hrs.
   
  WARNING: Negative pressures at 94:03:02 hrs.
   
  WARNING: Negative pressures at 94:03:06 hrs.
   
  WARNING: Negative pressures at 94:11:48 hrs.
   
  WARNING: Negative pressures at 94:11:59 hrs.
   
  WARNING: Negative pressures at 94:15:58 hrs.
   
  WARNING: Negative pressures at 94:16:03 hrs.
   
  WARNING: Negative pressures at 94:24:45 hrs.
   
  WARNING: Negative pressures at 94:24:56 hrs.
   
  WARNING: Negative pressures at 94:28:55 hrs.
   
  WARNING: Negative pressures at 94:29:00 hrs.
   
  WARNING: Negative pressures at 94:37:42 hrs.
   
  WARNING: Negative pressures at 94:37:53 hrs.
   
  WARNING: Negative pressures at 94:41:52 hrs.
   
  WARNING: Negative pressures at 94:41:57 hrs.
   
  WARNING: Negative pressures at 94:50:39 hrs.
   
  WARNING: Negative pressures at 94:50:50 hrs.
   
  WARNING: Negative pressures at 94:54:49 hrs.
   
  WARNING: Negative pressures at 94:54:54 hrs.
   
  WARNING: Negative pressures at 95:00:00 hrs.
   
  WARNING: Negative pressures at 95:00:06 hrs.
   
  WARNING: Negative pressures at 95:03:43 hrs.
   
  WARNING: Negative pressures at 95:07:48 hrs.
   
  WARNING: Negative pressures at 95:16:51 hrs.
   
  WARNING: Negative pressures at 95:20:56 hrs.
   
  WARNING: Negative pressures at 95:29:59 hrs.
   
  WARNING: Negative pressures at 95:34:04 hrs.
   
  WARNING: Negative pressures at 95:43:07 hrs.
   
  WARNING: Negative pressures at 95:47:12 hrs.
   
  WARNING: Negative pressures at 95:56:15 hrs.
   
  WARNING: Negative pressures at 96:00:00 hrs.
   
  WARNING: Negative pressures at 96:00:21 hrs.
   
  WARNING: Negative pressures at 96:09:35 hrs.
   
  WARNING: Negative pressures at 96:13:37 hrs.
   
  WARNING: Negative pressures at 96:22:52 hrs.
   
  WARNING: Negative pressures at 96:26:54 hrs.
   
  WARNING: Negative pressures at 96:36:10 hrs.
   
  WARNING: Negative pressures at 96:40:12 hrs.
   
  WARNING: Negative pressures at 96:49:27 hrs.
   
  WARNING: Negative pressures at 96:53:29 hrs.
   
  WARNING: Negative pressures at 97:00:00 hrs.
   
  WARNING: Negative pressures at 97:02:46 hrs.
   
  WARNING: Negative pressures at 97:06:48 hrs.
   
  WARNING: Negative pressures at 97:16:00 hrs.
   
  WARNING: Negative pressures at 97:20:02 hrs.
   
  WARNING: Negative pressures at 97:29:14 hrs.
   
  WARNING: Negative pressures at 97:33:16 hrs.
   
  WARNING: Negative pressures at 97:42:28 hrs.
   
  WARNING: Negative pressures at 97:46:30 hrs.
   
  WARNING: Negative pressures at 97:55:42 hrs.
   
  WARNING: Negative pressures at 97:59:44 hrs.
   
  WARNING: Negative pressures at 98:00:00 hrs.
   
  WARNING: Negative pressures at 98:08:52 hrs.
   
  WARNING: Negative pressures at 98:12:55 hrs.
   
  WARNING: Negative pressures at 98:22:03 hrs.
   
  WARNING: Negative pressures at 98:26:06 hrs.
   
  WARNING: Negative pressures at 98:35:14 hrs.
   
  WARNING: Negative pressures at 98:39:17 hrs.
   
  WARNING: Negative pressures at 98:48:25 hrs.
   
  WARNING: Negative pressures at 98:52:28 hrs.
   
  WARNING: Negative pressures at 99:00:00 hrs.
   
  WARNING: Negative pressures at 99:01:37 hrs.
   
  WARNING: Negative pressures at 99:05:40 hrs.
   
  WARNING: Negative pressures at 99:14:47 hrs.
   
  WARNING: Negative pressures at 99:18:50 hrs.
   
  WARNING: Negative pressures at 99:27:57 hrs.
   
  WARNING: Negative pressures at 99:32:00 hrs.
   
  WARNING: Negative pressures at 99:41:07 hrs.
   
  WARNING: Negative pressures at 99:45:10 hrs.
   
  WARNING: Negative pressures at 99:54:18 hrs.
   
  WARNING: Negative pressures at 99:58:21 hrs.
   
  WARNING: Negative pressures at 100:00:00 hrs.
   
  WARNING: Negative pressures at 100:07:26 hrs.
   
  WARNING: Negative pressures at 100:11:31 hrs.
   
  WARNING: Negative pressures at 100:20:36 hrs.
   
  WARNING: Negative pressures at 100:24:41 hrs.
   
  WARNING: Negative pressures at 100:27:15 hrs.
   
  WARNING: Negative pressures at 100:49:05 hrs.
   
  WARNING: Negative pressures at 100:52:12 hrs.
   
  WARNING: Negative pressures at 101:00:00 hrs.
   
  WARNING: Negative pressures at 101:23:28 hrs.
   
  WARNING: Negative pressures at 101:26:34 hrs.
   
  WARNING: Negative pressures at 101:58:06 hrs.
   
  WARNING: Negative pressures at 102:00:00 hrs.
   
  WARNING: Negative pressures at 102:01:20 hrs.
   
  WARNING: Negative pressures at 102:22:29 hrs.
   
  WARNING: Negative pressures at 102:25:55 hrs.
   
  WARNING: Negative pressures at 102:47:02 hrs.
   
  WARNING: Negative pressures at 102:50:28 hrs.
   
  WARNING: Negative pressures at 103:00:00 hrs.
   
  WARNING: Negative pressures at 103:09:03 hrs.
   
  WARNING: Negative pressures at 103:12:40 hrs.
   
  WARNING: Negative pressures at 103:29:09 hrs.
   
  WARNING: Negative pressures at 103:32:46 hrs.
   
  WARNING: Negative pressures at 103:36:57 hrs.
   
  WARNING: Negative pressures at 103:49:15 hrs.
   
  WARNING: Negative pressures at 103:52:54 hrs.
   
  WARNING: Negative pressures at 104:00:00 hrs.
   
  WARNING: Negative pressures at 104:08:37 hrs.
   
  WARNING: Negative pressures at 104:12:21 hrs.
   
  WARNING: Negative pressures at 104:27:29 hrs.
   
  WARNING: Negative pressures at 104:31:13 hrs.
   
  WARNING: Negative pressures at 104:46:21 hrs.
   
  WARNING: Negative pressures at 104:50:05 hrs.
   
  WARNING: Negative pressures at 105:00:00 hrs.
   
  WARNING: Negative pressures at 105:04:59 hrs.
   
  WARNING: Negative pressures at 105:08:46 hrs.
   
  WARNING: Negative pressures at 105:23:11 hrs.
   
  WARNING: Negative pressures at 105:26:58 hrs.
   
  WARNING: Negative pressures at 105:41:23 hrs.
   
  WARNING: Negative pressures at 105:45:10 hrs.
   
  WARNING: Negative pressures at 105:59:35 hrs.
   
  WARNING: Negative pressures at 106:00:00 hrs.
   
  WARNING: Negative pressures at 106:03:23 hrs.
   
  WARNING: Negative pressures at 106:18:08 hrs.
   
  WARNING: Negative pressures at 106:21:54 hrs.
   
  WARNING: Negative pressures at 106:36:39 hrs.
   
  WARNING: Negative pressures at 106:40:25 hrs.
   
  WARNING: Negative pressures at 106:55:10 hrs.
   
  WARNING: Negative pressures at 106:58:56 hrs.
   
  WARNING: Negative pressures at 107:00:00 hrs.
   
  WARNING: Negative pressures at 107:01:06 hrs.
   
  WARNING: Negative pressures at 107:13:49 hrs.
   
  WARNING: Negative pressures at 107:17:33 hrs.
   
  WARNING: Negative pressures at 107:32:27 hrs.
   
  WARNING: Negative pressures at 107:36:11 hrs.
   
  WARNING: Negative pressures at 107:51:05 hrs.
   
  WARNING: Negative pressures at 107:54:49 hrs.
   
  WARNING: Negative pressures at 108:00:00 hrs.
   
  WARNING: Negative pressures at 108:10:02 hrs.
   
  WARNING: Negative pressures at 108:13:44 hrs.
   
  WARNING: Negative pressures at 108:24:57 hrs.
   
  WARNING: Negative pressures at 108:26:52 hrs.
   
  WARNING: Negative pressures at 108:32:03 hrs.
   
  WARNING: Negative pressures at 108:39:03 hrs.
   
  WARNING: Negative pressures at 108:44:14 hrs.
   
  WARNING: Negative pressures at 108:51:14 hrs.
   
  WARNING: Negative pressures at 108:56:25 hrs.
   
  WARNING: Negative pressures at 109:00:00 hrs.
   
  WARNING: Negative pressures at 109:03:27 hrs.
   
  WARNING: Negative pressures at 109:08:36 hrs.
   
  WARNING: Negative pressures at 109:15:38 hrs.
   
  WARNING: Negative pressures at 109:20:47 hrs.
   
  WARNING: Negative pressures at 109:27:49 hrs.
   
  WARNING: Negative pressures at 109:29:42 hrs.
   
  WARNING: Negative pressures at 109:33:05 hrs.
   
  WARNING: Negative pressures at 109:40:06 hrs.
   
  WARNING: Negative pressures at 109:45:13 hrs.
   
  WARNING: Negative pressures at 109:52:15 hrs.
   
  WARNING: Negative pressures at 109:57:22 hrs.
   
  WARNING: Negative pressures at 110:00:00 hrs.
   
  WARNING: Negative pressures at 110:04:29 hrs.
   
  WARNING: Negative pressures at 110:09:32 hrs.
   
  WARNING: Negative pressures at 110:16:41 hrs.
   
  WARNING: Negative pressures at 110:21:44 hrs.
   
  WARNING: Negative pressures at 110:28:53 hrs.
   
  WARNING: Negative pressures at 110:33:56 hrs.
   
  WARNING: Negative pressures at 110:41:05 hrs.
   
  WARNING: Negative pressures at 110:46:08 hrs.
   
  WARNING: Negative pressures at 110:53:17 hrs.
   
  WARNING: Negative pressures at 110:58:20 hrs.
   
  WARNING: Negative pressures at 111:00:00 hrs.
   
  WARNING: Negative pressures at 111:05:31 hrs.
   
  WARNING: Negative pressures at 111:10:32 hrs.
   
  WARNING: Negative pressures at 111:17:42 hrs.
   
  WARNING: Negative pressures at 111:22:15 hrs.
   
  WARNING: Negative pressures at 111:22:51 hrs.
   
  WARNING: Negative pressures at 111:27:17 hrs.
   
  WARNING: Negative pressures at 111:30:03 hrs.
   
  WARNING: Negative pressures at 111:35:05 hrs.
   
  WARNING: Negative pressures at 111:42:16 hrs.
   
  WARNING: Negative pressures at 111:47:17 hrs.
   
  WARNING: Negative pressures at 111:50:09 hrs.
   
  WARNING: Negative pressures at 111:54:29 hrs.
   
  WARNING: Negative pressures at 111:59:31 hrs.
   
  WARNING: Negative pressures at 112:00:00 hrs.
   
  WARNING: Negative pressures at 112:06:43 hrs.
   
  WARNING: Negative pressures at 112:11:44 hrs.
   
  WARNING: Negative pressures at 112:18:56 hrs.
   
  WARNING: Negative pressures at 112:23:57 hrs.
   
  WARNING: Negative pressures at 112:26:32 hrs.
   
  WARNING: Negative pressures at 112:31:10 hrs.
   
  WARNING: Negative pressures at 112:36:11 hrs.
   
  WARNING: Negative pressures at 112:43:22 hrs.
   
  WARNING: Negative pressures at 112:48:23 hrs.
   
  WARNING: Negative pressures at 112:55:35 hrs.
   
  WARNING: Negative pressures at 113:00:00 hrs.
   
  WARNING: Negative pressures at 113:00:40 hrs.
   
  WARNING: Negative pressures at 113:07:15 hrs.
   
  WARNING: Negative pressures at 113:08:00 hrs.
   
  WARNING: Negative pressures at 113:12:58 hrs.
   
  WARNING: Negative pressures at 113:15:10 hrs.
   
  WARNING: Negative pressures at 113:20:18 hrs.
   
  WARNING: Negative pressures at 113:25:15 hrs.
   
  WARNING: Negative pressures at 113:32:34 hrs.
   
  WARNING: Negative pressures at 113:37:32 hrs.
   
  WARNING: Negative pressures at 113:44:52 hrs.
   
  WARNING: Negative pressures at 113:49:50 hrs.
   
  WARNING: Negative pressures at 113:57:10 hrs.
   
  WARNING: Negative pressures at 114:00:00 hrs.
   
  WARNING: Negative pressures at 114:02:16 hrs.
   
  WARNING: Negative pressures at 114:09:40 hrs.
   
  WARNING: Negative pressures at 114:11:36 hrs.
   
  WARNING: Negative pressures at 114:15:05 hrs.
   
  WARNING: Negative pressures at 114:22:29 hrs.
   
  WARNING: Negative pressures at 114:27:24 hrs.
   
  WARNING: Negative pressures at 114:34:48 hrs.
   
  WARNING: Negative pressures at 114:39:43 hrs.
   
  WARNING: Negative pressures at 114:47:07 hrs.
   
  WARNING: Negative pressures at 114:52:02 hrs.
   
  WARNING: Negative pressures at 114:56:16 hrs.
   
  WARNING: Negative pressures at 114:59:27 hrs.
   
  WARNING: Negative pressures at 115:00:00 hrs.
   
  WARNING: Negative pressures at 115:04:20 hrs.
   
  WARNING: Negative pressures at 115:11:54 hrs.
   
  WARNING: Negative pressures at 115:16:43 hrs.
   
  WARNING: Negative pressures at 115:24:18 hrs.
   
  WARNING: Negative pressures at 115:29:07 hrs.
   
  WARNING: Negative pressures at 115:36:41 hrs.
   
  WARNING: Negative pressures at 115:41:30 hrs.
   
  WARNING: Negative pressures at 115:49:05 hrs.
   
  WARNING: Negative pressures at 115:53:54 hrs.
   
  WARNING: Negative pressures at 116:00:00 hrs.
   
  WARNING: Negative pressures at 116:01:36 hrs.
   
  WARNING: Negative pressures at 116:06:13 hrs.
   
  WARNING: Negative pressures at 116:14:17 hrs.
   
  WARNING: Negative pressures at 116:18:54 hrs.
   
  WARNING: Negative pressures at 116:19:20 hrs.
   
  WARNING: Negative pressures at 116:26:58 hrs.
   
  WARNING: Negative pressures at 116:31:37 hrs.
   
  WARNING: Negative pressures at 116:39:40 hrs.
   
  WARNING: Negative pressures at 116:44:19 hrs.
   
  WARNING: Negative pressures at 116:52:23 hrs.
   
  WARNING: Negative pressures at 116:57:02 hrs.
   
  WARNING: Negative pressures at 117:00:00 hrs.
   
  WARNING: Negative pressures at 117:01:20 hrs.
   
  WARNING: Negative pressures at 117:05:23 hrs.
   
  WARNING: Negative pressures at 117:05:42 hrs.
   
  WARNING: Negative pressures at 117:09:40 hrs.
   
  WARNING: Negative pressures at 117:09:59 hrs.
   
  WARNING: Negative pressures at 117:18:08 hrs.
   
  WARNING: Negative pressures at 117:18:46 hrs.
   
  WARNING: Negative pressures at 117:22:28 hrs.
   
  WARNING: Negative pressures at 117:22:45 hrs.
   
  WARNING: Negative pressures at 117:30:57 hrs.
   
  WARNING: Negative pressures at 117:31:35 hrs.
   
  WARNING: Negative pressures at 117:35:16 hrs.
   
  WARNING: Negative pressures at 117:35:33 hrs.
   
  WARNING: Negative pressures at 117:43:44 hrs.
   
  WARNING: Negative pressures at 117:44:22 hrs.
   
  WARNING: Negative pressures at 117:48:04 hrs.
   
  WARNING: Negative pressures at 117:48:21 hrs.
   
  WARNING: Negative pressures at 117:56:34 hrs.
   
  WARNING: Negative pressures at 117:57:12 hrs.
   
  WARNING: Negative pressures at 118:00:00 hrs.
   
  WARNING: Negative pressures at 118:00:13 hrs.
   
  WARNING: Negative pressures at 118:00:57 hrs.
   
  WARNING: Negative pressures at 118:00:59 hrs.
   
  WARNING: Negative pressures at 118:09:43 hrs.
   
  WARNING: Negative pressures at 118:10:03 hrs.
   
  WARNING: Negative pressures at 118:13:56 hrs.
   
  WARNING: Negative pressures at 118:14:05 hrs.
   
  WARNING: Negative pressures at 118:22:43 hrs.
   
  WARNING: Negative pressures at 118:23:03 hrs.
   
  WARNING: Negative pressures at 118:26:56 hrs.
   
  WARNING: Negative pressures at 118:27:05 hrs.
   
  WARNING: Negative pressures at 118:35:43 hrs.
   
  WARNING: Negative pressures at 118:36:03 hrs.
   
  WARNING: Negative pressures at 118:39:56 hrs.
   
  WARNING: Negative pressures at 118:40:05 hrs.
   
  WARNING: Negative pressures at 118:48:43 hrs.
   
  WARNING: Negative pressures at 118:49:03 hrs.
   
  WARNING: Negative pressures at 118:52:55 hrs.
   
  WARNING: Negative pressures at 118:53:04 hrs.
   
  WARNING: Negative pressures at 118:54:20 hrs.
   
  WARNING: Negative pressures at 118:54:23 hrs.
   
  WARNING: Negative pressures at 119:00:00 hrs.
   
  WARNING: Negative pressures at 119:00:07 hrs.
   
  WARNING: Negative pressures at 119:01:45 hrs.
   
  WARNING: Negative pressures at 119:05:50 hrs.
   
  WARNING: Negative pressures at 119:14:53 hrs.
   
  WARNING: Negative pressures at 119:18:58 hrs.
   
  WARNING: Negative pressures at 119:28:00 hrs.
   
  WARNING: Negative pressures at 119:32:04 hrs.
   
  WARNING: Negative pressures at 119:41:05 hrs.
   
  WARNING: Negative pressures at 119:45:10 hrs.
   
  WARNING: Negative pressures at 119:54:13 hrs.
   
  WARNING: Negative pressures at 119:58:18 hrs.
   
  WARNING: Negative pressures at 120:00:00 hrs.
   
  WARNING: Negative pressures at 120:07:32 hrs.
   
  WARNING: Negative pressures at 120:11:34 hrs.
   
  WARNING: Negative pressures at 120:20:49 hrs.
   
  WARNING: Negative pressures at 120:24:51 hrs.
   
  WARNING: Negative pressures at 120:34:07 hrs.
   
  WARNING: Negative pressures at 120:38:09 hrs.
   
  WARNING: Negative pressures at 120:47:24 hrs.
   
  WARNING: Negative pressures at 120:51:25 hrs.
   
  WARNING: Negative pressures at 121:00:00 hrs.
   
  WARNING: Negative pressures at 121:00:39 hrs.
   
  WARNING: Negative pressures at 121:04:41 hrs.
   
  WARNING: Negative pressures at 121:13:53 hrs.
   
  WARNING: Negative pressures at 121:17:55 hrs.
   
  WARNING: Negative pressures at 121:27:07 hrs.
   
  WARNING: Negative pressures at 121:31:09 hrs.
   
  WARNING: Negative pressures at 121:40:21 hrs.
   
  WARNING: Negative pressures at 121:44:23 hrs.
   
  WARNING: Negative pressures at 121:53:35 hrs.
   
  WARNING: Negative pressures at 121:57:37 hrs.
   
  WARNING: Negative pressures at 122:00:00 hrs.
   
  WARNING: Negative pressures at 122:06:48 hrs.
   
  WARNING: Negative pressures at 122:10:51 hrs.
   
  WARNING: Negative pressures at 122:19:58 hrs.
   
  WARNING: Negative pressures at 122:24:01 hrs.
   
  WARNING: Negative pressures at 122:33:09 hrs.
   
  WARNING: Negative pressures at 122:37:12 hrs.
   
  WARNING: Negative pressures at 122:46:20 hrs.
   
  WARNING: Negative pressures at 122:50:23 hrs.
   
  WARNING: Negative pressures at 122:59:32 hrs.
   
  WARNING: Negative pressures at 123:00:00 hrs.
   
  WARNING: Negative pressures at 123:03:38 hrs.
   
  WARNING: Negative pressures at 123:12:46 hrs.
   
  WARNING: Negative pressures at 123:16:49 hrs.
   
  WARNING: Negative pressures at 123:25:56 hrs.
   
  WARNING: Negative pressures at 123:29:59 hrs.
   
  WARNING: Negative pressures at 123:39:06 hrs.
   
  WARNING: Negative pressures at 123:43:09 hrs.
   
  WARNING: Negative pressures at 123:52:17 hrs.
   
  WARNING: Negative pressures at 123:56:20 hrs.
   
  WARNING: Negative pressures at 124:00:00 hrs.
   
  WARNING: Negative pressures at 124:05:26 hrs.
   
  WARNING: Negative pressures at 124:09:31 hrs.
   
  WARNING: Negative pressures at 124:18:36 hrs.
   
  WARNING: Negative pressures at 124:22:41 hrs.
   
  WARNING: Negative pressures at 124:27:24 hrs.
   
  WARNING: Negative pressures at 124:42:03 hrs.
   
  WARNING: Negative pressures at 124:45:10 hrs.
   
  WARNING: Negative pressures at 125:00:00 hrs.
   
  WARNING: Negative pressures at 125:16:10 hrs.
   
  WARNING: Negative pressures at 125:19:16 hrs.
   
  WARNING: Negative pressures at 125:50:49 hrs.
   
  WARNING: Negative pressures at 125:53:55 hrs.
   
  WARNING: Negative pressures at 126:00:00 hrs.
   
  WARNING: Negative pressures at 126:17:02 hrs.
   
  WARNING: Negative pressures at 126:20:28 hrs.
   
  WARNING: Negative pressures at 126:41:34 hrs.
   
  WARNING: Negative pressures at 126:45:00 hrs.
   
  WARNING: Negative pressures at 127:00:00 hrs.
   
  WARNING: Negative pressures at 127:04:47 hrs.
   
  WARNING: Negative pressures at 127:08:25 hrs.
   
  WARNING: Negative pressures at 127:24:57 hrs.
   
  WARNING: Negative pressures at 127:28:34 hrs.
   
  WARNING: Negative pressures at 127:45:03 hrs.
   
  WARNING: Negative pressures at 127:48:41 hrs.
   
  WARNING: Negative pressures at 128:00:00 hrs.
   
  WARNING: Negative pressures at 128:04:47 hrs.
   
  WARNING: Negative pressures at 128:08:30 hrs.
   
  WARNING: Negative pressures at 128:23:40 hrs.
   
  WARNING: Negative pressures at 128:27:23 hrs.
   
  WARNING: Negative pressures at 128:42:33 hrs.
   
  WARNING: Negative pressures at 128:46:16 hrs.
   
  WARNING: Negative pressures at 129:00:00 hrs.
   
  WARNING: Negative pressures at 129:01:21 hrs.
   
  WARNING: Negative pressures at 129:05:07 hrs.
   
  WARNING: Negative pressures at 129:19:34 hrs.
   
  WARNING: Negative pressures at 129:23:20 hrs.
   
  WARNING: Negative pressures at 129:37:46 hrs.
   
  WARNING: Negative pressures at 129:41:32 hrs.
   
  WARNING: Negative pressures at 129:55:59 hrs.
   
  WARNING: Negative pressures at 129:59:45 hrs.
   
  WARNING: Negative pressures at 130:00:00 hrs.
   
  WARNING: Negative pressures at 130:14:29 hrs.
   
  WARNING: Negative pressures at 130:18:13 hrs.
   
  WARNING: Negative pressures at 130:32:55 hrs.
   
  WARNING: Negative pressures at 130:36:39 hrs.
   
  WARNING: Negative pressures at 130:51:22 hrs.
   
  WARNING: Negative pressures at 130:55:07 hrs.
   
  WARNING: Negative pressures at 131:00:00 hrs.
   
  WARNING: Negative pressures at 131:09:59 hrs.
   
  WARNING: Negative pressures at 131:13:43 hrs.
   
  WARNING: Negative pressures at 131:19:53 hrs.
   
  WARNING: Negative pressures at 131:28:37 hrs.
   
  WARNING: Negative pressures at 131:32:22 hrs.
   
  WARNING: Negative pressures at 131:47:14 hrs.
   
  WARNING: Negative pressures at 131:50:59 hrs.
   
  WARNING: Negative pressures at 132:00:00 hrs.
   
  WARNING: Negative pressures at 132:06:03 hrs.
   
  WARNING: Negative pressures at 132:09:46 hrs.
   
  WARNING: Negative pressures at 132:25:02 hrs.
   
  WARNING: Negative pressures at 132:25:05 hrs.
   
  WARNING: Negative pressures at 132:30:18 hrs.
   
  WARNING: Negative pressures at 132:37:17 hrs.
   
  WARNING: Negative pressures at 132:42:30 hrs.
   
  WARNING: Negative pressures at 132:49:29 hrs.
   
  WARNING: Negative pressures at 132:54:42 hrs.
   
  WARNING: Negative pressures at 133:00:00 hrs.
   
  WARNING: Negative pressures at 133:01:43 hrs.
   
  WARNING: Negative pressures at 133:06:55 hrs.
   
  WARNING: Negative pressures at 133:13:57 hrs.
   
  WARNING: Negative pressures at 133:19:08 hrs.
   
  WARNING: Negative pressures at 133:26:10 hrs.
   
  WARNING: Negative pressures at 133:27:48 hrs.
   
  WARNING: Negative pressures at 133:31:30 hrs.
   
  WARNING: Negative pressures at 133:38:32 hrs.
   
  WARNING: Negative pressures at 133:43:43 hrs.
   
  WARNING: Negative pressures at 133:50:45 hrs.
   
  WARNING: Negative pressures at 133:53:23 hrs.
   
  WARNING: Negative pressures at 133:56:23 hrs.
   
  WARNING: Negative pressures at 134:00:00 hrs.
   
  WARNING: Negative pressures at 134:03:29 hrs.
   
  WARNING: Negative pressures at 134:08:35 hrs.
   
  WARNING: Negative pressures at 134:12:32 hrs.
   
  WARNING: Negative pressures at 134:15:44 hrs.
   
  WARNING: Negative pressures at 134:20:50 hrs.
   
  WARNING: Negative pressures at 134:27:59 hrs.
   
  WARNING: Negative pressures at 134:33:05 hrs.
   
  WARNING: Negative pressures at 134:33:48 hrs.
   
  WARNING: Negative pressures at 134:40:14 hrs.
   
  WARNING: Negative pressures at 134:45:20 hrs.
   
  WARNING: Negative pressures at 134:52:28 hrs.
   
  WARNING: Negative pressures at 134:57:34 hrs.
   
  WARNING: Negative pressures at 135:00:00 hrs.
   
  WARNING: Negative pressures at 135:04:45 hrs.
   
  WARNING: Negative pressures at 135:09:50 hrs.
   
  WARNING: Negative pressures at 135:11:46 hrs.
   
  WARNING: Negative pressures at 135:17:02 hrs.
   
  WARNING: Negative pressures at 135:18:51 hrs.
   
  WARNING: Negative pressures at 135:22:37 hrs.
   
  WARNING: Negative pressures at 135:29:48 hrs.
   
  WARNING: Negative pressures at 135:34:50 hrs.
   
  WARNING: Negative pressures at 135:42:01 hrs.
   
  WARNING: Negative pressures at 135:47:02 hrs.
   
  WARNING: Negative pressures at 135:49:55 hrs.
   
  WARNING: Negative pressures at 135:54:14 hrs.
   
  WARNING: Negative pressures at 135:59:16 hrs.
   
  WARNING: Negative pressures at 136:00:00 hrs.
   
  WARNING: Negative pressures at 136:06:28 hrs.
   
  WARNING: Negative pressures at 136:11:29 hrs.
   
  WARNING: Negative pressures at 136:18:41 hrs.
   
  WARNING: Negative pressures at 136:23:42 hrs.
   
  WARNING: Negative pressures at 136:26:09 hrs.
   
  WARNING: Negative pressures at 136:30:55 hrs.
   
  WARNING: Negative pressures at 136:35:56 hrs.
   
  WARNING: Negative pressures at 136:43:07 hrs.
   
  WARNING: Negative pressures at 136:48:08 hrs.
   
  WARNING: Negative pressures at 136:55:20 hrs.
   
  WARNING: Negative pressures at 137:00:00 hrs.
   
  WARNING: Negative pressures at 137:00:23 hrs.
   
  WARNING: Negative pressures at 137:07:41 hrs.
   
  WARNING: Negative pressures at 137:08:11 hrs.
   
  WARNING: Negative pressures at 137:13:12 hrs.
   
  WARNING: Negative pressures at 137:20:31 hrs.
   
  WARNING: Negative pressures at 137:25:28 hrs.
   
  WARNING: Negative pressures at 137:32:46 hrs.
   
  WARNING: Negative pressures at 137:37:43 hrs.
   
  WARNING: Negative pressures at 137:45:02 hrs.
   
  WARNING: Negative pressures at 137:50:00 hrs.
   
  WARNING: Negative pressures at 137:57:20 hrs.
   
  WARNING: Negative pressures at 138:00:00 hrs.
   
  WARNING: Negative pressures at 138:01:19 hrs.
   
  WARNING: Negative pressures at 138:02:36 hrs.
   
  WARNING: Negative pressures at 138:09:59 hrs.
   
  WARNING: Negative pressures at 138:14:54 hrs.
   
  WARNING: Negative pressures at 138:17:54 hrs.
   
  WARNING: Negative pressures at 138:22:19 hrs.
   
  WARNING: Negative pressures at 138:27:14 hrs.
   
  WARNING: Negative pressures at 138:34:38 hrs.
   
  WARNING: Negative pressures at 138:39:33 hrs.
   
  WARNING: Negative pressures at 138:46:57 hrs.
   
  WARNING: Negative pressures at 138:51:52 hrs.
   
  WARNING: Negative pressures at 138:59:16 hrs.
   
  WARNING: Negative pressures at 139:00:00 hrs.
   
  WARNING: Negative pressures at 139:04:10 hrs.
   
  WARNING: Negative pressures at 139:11:44 hrs.
   
  WARNING: Negative pressures at 139:16:33 hrs.
   
  WARNING: Negative pressures at 139:24:08 hrs.
   
  WARNING: Negative pressures at 139:28:57 hrs.
   
  WARNING: Negative pressures at 139:36:31 hrs.
   
  WARNING: Negative pressures at 139:41:20 hrs.
   
  WARNING: Negative pressures at 139:48:55 hrs.
   
  WARNING: Negative pressures at 139:53:44 hrs.
   
  WARNING: Negative pressures at 140:00:00 hrs.
   
  WARNING: Negative pressures at 140:01:25 hrs.
   
  WARNING: Negative pressures at 140:06:02 hrs.
   
  WARNING: Negative pressures at 140:14:06 hrs.
   
  WARNING: Negative pressures at 140:18:43 hrs.
   
  WARNING: Negative pressures at 140:26:47 hrs.
   
  WARNING: Negative pressures at 140:31:23 hrs.
   
  WARNING: Negative pressures at 140:39:26 hrs.
   
  WARNING: Negative pressures at 140:44:03 hrs.
   
  WARNING: Negative pressures at 140:52:07 hrs.
   
  WARNING: Negative pressures at 140:56:43 hrs.
   
  WARNING: Negative pressures at 141:00:00 hrs.
   
  WARNING: Negative pressures at 141:01:47 hrs.
   
  WARNING: Negative pressures at 141:05:03 hrs.
   
  WARNING: Negative pressures at 141:05:14 hrs.
   
  WARNING: Negative pressures at 141:09:17 hrs.
   
  WARNING: Negative pressures at 141:09:31 hrs.
   
  WARNING: Negative pressures at 141:17:45 hrs.
   
  WARNING: Negative pressures at 141:18:14 hrs.
   
  WARNING: Negative pressures at 141:22:02 hrs.
   
  WARNING: Negative pressures at 141:22:15 hrs.
   
  WARNING: Negative pressures at 141:30:31 hrs.
   
  WARNING: Negative pressures at 141:31:00 hrs.
   
  WARNING: Negative pressures at 141:34:48 hrs.
   
  WARNING: Negative pressures at 141:35:01 hrs.
   
  WARNING: Negative pressures at 141:43:17 hrs.
   
  WARNING: Negative pressures at 141:43:46 hrs.
   
  WARNING: Negative pressures at 141:47:34 hrs.
   
  WARNING: Negative pressures at 141:47:47 hrs.
   
  WARNING: Negative pressures at 141:56:03 hrs.
   
  WARNING: Negative pressures at 141:56:32 hrs.
   
  WARNING: Negative pressures at 142:00:00 hrs.
   
  WARNING: Negative pressures at 142:00:12 hrs.
   
  WARNING: Negative pressures at 142:00:22 hrs.
   
  WARNING: Negative pressures at 142:09:09 hrs.
   
  WARNING: Negative pressures at 142:09:20 hrs.
   
  WARNING: Negative pressures at 142:13:19 hrs.
   
  WARNING: Negative pressures at 142:13:24 hrs.
   
  WARNING: Negative pressures at 142:22:06 hrs.
   
  WARNING: Negative pressures at 142:22:17 hrs.
   
  WARNING: Negative pressures at 142:26:16 hrs.
   
  WARNING: Negative pressures at 142:26:21 hrs.
   
  WARNING: Negative pressures at 142:35:02 hrs.
   
  WARNING: Negative pressures at 142:35:13 hrs.
   
  WARNING: Negative pressures at 142:39:12 hrs.
   
  WARNING: Negative pressures at 142:39:17 hrs.
   
  WARNING: Negative pressures at 142:47:59 hrs.
   
  WARNING: Negative pressures at 142:48:10 hrs.
   
  WARNING: Negative pressures at 142:52:09 hrs.
   
  WARNING: Negative pressures at 142:52:14 hrs.
   
  WARNING: Negative pressures at 143:00:00 hrs.
   
  WARNING: Negative pressures at 143:00:10 hrs.
   
  WARNING: Negative pressures at 143:00:58 hrs.
   
  WARNING: Negative pressures at 143:05:03 hrs.
   
  WARNING: Negative pressures at 143:14:06 hrs.
   
  WARNING: Negative pressures at 143:18:11 hrs.
   
  WARNING: Negative pressures at 143:27:14 hrs.
   
  WARNING: Negative pressures at 143:31:19 hrs.
   
  WARNING: Negative pressures at 143:40:21 hrs.
   
  WARNING: Negative pressures at 143:44:25 hrs.
   
  WARNING: Negative pressures at 143:53:26 hrs.
   
  WARNING: Negative pressures at 143:57:31 hrs.
   
  WARNING: Negative pressures at 144:00:00 hrs.
   
  WARNING: Negative pressures at 144:06:45 hrs.
   
  WARNING: Negative pressures at 144:10:47 hrs.
   
  WARNING: Negative pressures at 144:20:02 hrs.
   
  WARNING: Negative pressures at 144:24:04 hrs.
   
  WARNING: Negative pressures at 144:33:19 hrs.
   
  WARNING: Negative pressures at 144:37:21 hrs.
   
  WARNING: Negative pressures at 144:46:37 hrs.
   
  WARNING: Negative pressures at 144:50:39 hrs.
   
  WARNING: Negative pressures at 144:59:55 hrs.
   
  WARNING: Negative pressures at 145:00:00 hrs.
   
  WARNING: Negative pressures at 145:03:58 hrs.
   
  WARNING: Negative pressures at 145:13:11 hrs.
   
  WARNING: Negative pressures at 145:17:13 hrs.
   
  WARNING: Negative pressures at 145:26:25 hrs.
   
  WARNING: Negative pressures at 145:30:27 hrs.
   
  WARNING: Negative pressures at 145:39:39 hrs.
   
  WARNING: Negative pressures at 145:43:41 hrs.
   
  WARNING: Negative pressures at 145:52:53 hrs.
   
  WARNING: Negative pressures at 145:56:55 hrs.
   
  WARNING: Negative pressures at 146:00:00 hrs.
   
  WARNING: Negative pressures at 146:06:06 hrs.
   
  WARNING: Negative pressures at 146:10:09 hrs.
   
  WARNING: Negative pressures at 146:19:17 hrs.
   
  WARNING: Negative pressures at 146:23:20 hrs.
   
  WARNING: Negative pressures at 146:32:28 hrs.
   
  WARNING: Negative pressures at 146:36:31 hrs.
   
  WARNING: Negative pressures at 146:45:39 hrs.
   
  WARNING: Negative pressures at 146:49:42 hrs.
   
  WARNING: Negative pressures at 146:58:50 hrs.
   
  WARNING: Negative pressures at 147:00:00 hrs.
   
  WARNING: Negative pressures at 147:02:58 hrs.
   
  WARNING: Negative pressures at 147:12:06 hrs.
   
  WARNING: Negative pressures at 147:16:09 hrs.
   
  WARNING: Negative pressures at 147:25:16 hrs.
   
  WARNING: Negative pressures at 147:29:19 hrs.
   
  WARNING: Negative pressures at 147:38:26 hrs.
   
  WARNING: Negative pressures at 147:42:29 hrs.
   
  WARNING: Negative pressures at 147:51:36 hrs.
   
  WARNING: Negative pressures at 147:55:39 hrs.
   
  WARNING: Negative pressures at 148:00:00 hrs.
   
  WARNING: Negative pressures at 148:04:46 hrs.
   
  WARNING: Negative pressures at 148:05:37 hrs.
   
  WARNING: Negative pressures at 148:08:56 hrs.
   
  WARNING: Negative pressures at 148:08:58 hrs.
   
  WARNING: Negative pressures at 148:18:01 hrs.
   
  WARNING: Negative pressures at 148:18:07 hrs.
   
  WARNING: Negative pressures at 148:22:08 hrs.
   
  WARNING: Negative pressures at 148:22:11 hrs.
   
  WARNING: Negative pressures at 148:27:19 hrs.
   
  WARNING: Negative pressures at 148:27:23 hrs.
   
  WARNING: Negative pressures at 148:40:20 hrs.
   
  WARNING: Negative pressures at 148:40:29 hrs.
   
  WARNING: Negative pressures at 148:43:29 hrs.
   
  WARNING: Negative pressures at 148:43:31 hrs.
   
  WARNING: Negative pressures at 149:00:00 hrs.
   
  WARNING: Negative pressures at 149:00:11 hrs.
   
  WARNING: Negative pressures at 149:14:27 hrs.
   
  WARNING: Negative pressures at 149:17:34 hrs.
   
  WARNING: Negative pressures at 149:49:07 hrs.
   
  WARNING: Negative pressures at 149:52:22 hrs.
   
  WARNING: Negative pressures at 150:00:00 hrs.
   
  WARNING: Negative pressures at 150:15:59 hrs.
   
  WARNING: Negative pressures at 150:19:26 hrs.
   
  WARNING: Negative pressures at 150:35:36 hrs.
   
  WARNING: Negative pressures at 150:40:30 hrs.
   
  WARNING: Negative pressures at 150:43:56 hrs.
   
  WARNING: Negative pressures at 151:00:00 hrs.
   
  WARNING: Negative pressures at 151:03:56 hrs.
   
  WARNING: Negative pressures at 151:07:33 hrs.
   
  WARNING: Negative pressures at 151:24:01 hrs.
   
  WARNING: Negative pressures at 151:27:38 hrs.
   
  WARNING: Negative pressures at 151:44:07 hrs.
   
  WARNING: Negative pressures at 151:47:45 hrs.
   
  WARNING: Negative pressures at 152:00:00 hrs.
   
  WARNING: Negative pressures at 152:03:56 hrs.
   
  WARNING: Negative pressures at 152:07:39 hrs.
   
  WARNING: Negative pressures at 152:22:49 hrs.
   
  WARNING: Negative pressures at 152:26:32 hrs.
   
  WARNING: Negative pressures at 152:41:42 hrs.
   
  WARNING: Negative pressures at 152:45:25 hrs.
   
  WARNING: Negative pressures at 153:00:00 hrs.
   
  WARNING: Negative pressures at 153:00:33 hrs.
   
  WARNING: Negative pressures at 153:04:19 hrs.
   
  WARNING: Negative pressures at 153:18:45 hrs.
   
  WARNING: Negative pressures at 153:22:31 hrs.
   
  WARNING: Negative pressures at 153:36:58 hrs.
   
  WARNING: Negative pressures at 153:40:44 hrs.
   
  WARNING: Negative pressures at 153:55:10 hrs.
   
  WARNING: Negative pressures at 153:58:56 hrs.
   
  WARNING: Negative pressures at 154:00:00 hrs.
   
  WARNING: Negative pressures at 154:13:40 hrs.
   
  WARNING: Negative pressures at 154:17:25 hrs.
   
  WARNING: Negative pressures at 154:32:11 hrs.
   
  WARNING: Negative pressures at 154:35:56 hrs.
   
  WARNING: Negative pressures at 154:50:42 hrs.
   
  WARNING: Negative pressures at 154:54:27 hrs.
   
  WARNING: Negative pressures at 155:00:00 hrs.
   
  WARNING: Negative pressures at 155:09:19 hrs.
   
  WARNING: Negative pressures at 155:13:03 hrs.
   
  WARNING: Negative pressures at 155:27:57 hrs.
   
  WARNING: Negative pressures at 155:31:41 hrs.
   
  WARNING: Negative pressures at 155:46:35 hrs.
   
  WARNING: Negative pressures at 155:50:19 hrs.
   
  WARNING: Negative pressures at 156:00:00 hrs.
   
  WARNING: Negative pressures at 156:05:23 hrs.
   
  WARNING: Negative pressures at 156:09:05 hrs.
   
  WARNING: Negative pressures at 156:17:24 hrs.
   
  WARNING: Negative pressures at 156:24:28 hrs.
   
  WARNING: Negative pressures at 156:24:59 hrs.
   
  WARNING: Negative pressures at 156:29:29 hrs.
   
  WARNING: Negative pressures at 156:36:28 hrs.
   
  WARNING: Negative pressures at 156:41:37 hrs.
   
  WARNING: Negative pressures at 156:48:36 hrs.
   
  WARNING: Negative pressures at 156:53:45 hrs.
   
  WARNING: Negative pressures at 157:00:00 hrs.
   
  WARNING: Negative pressures at 157:00:45 hrs.
   
  WARNING: Negative pressures at 157:05:52 hrs.
   
  WARNING: Negative pressures at 157:12:53 hrs.
   
  WARNING: Negative pressures at 157:18:00 hrs.
   
  WARNING: Negative pressures at 157:25:02 hrs.
   
  WARNING: Negative pressures at 157:30:09 hrs.
   
  WARNING: Negative pressures at 157:37:10 hrs.
   
  WARNING: Negative pressures at 157:42:17 hrs.
   
  WARNING: Negative pressures at 157:49:19 hrs.
   
  WARNING: Negative pressures at 157:54:26 hrs.
   
  WARNING: Negative pressures at 158:00:00 hrs.
   
  WARNING: Negative pressures at 158:01:29 hrs.
   
  WARNING: Negative pressures at 158:06:32 hrs.
   
  WARNING: Negative pressures at 158:13:41 hrs.
   
  WARNING: Negative pressures at 158:18:44 hrs.
   
  WARNING: Negative pressures at 158:25:53 hrs.
   
  WARNING: Negative pressures at 158:26:01 hrs.
   
  WARNING: Negative pressures at 158:31:32 hrs.
   
  WARNING: Negative pressures at 158:38:41 hrs.
   
  WARNING: Negative pressures at 158:43:44 hrs.
   
  WARNING: Negative pressures at 158:50:53 hrs.
   
  WARNING: Negative pressures at 158:55:56 hrs.
   
  WARNING: Negative pressures at 159:00:00 hrs.
   
  WARNING: Negative pressures at 159:03:07 hrs.
   
  WARNING: Negative pressures at 159:08:09 hrs.
   
  WARNING: Negative pressures at 159:09:13 hrs.
   
  WARNING: Negative pressures at 159:15:21 hrs.
   
  WARNING: Negative pressures at 159:19:24 hrs.
   
  WARNING: Negative pressures at 159:20:30 hrs.
   
  WARNING: Negative pressures at 159:27:41 hrs.
   
  WARNING: Negative pressures at 159:32:46 hrs.
   
  WARNING: Negative pressures at 159:39:57 hrs.
   
  WARNING: Negative pressures at 159:45:02 hrs.
   
  WARNING: Negative pressures at 159:52:07 hrs.
   
  WARNING: Negative pressures at 159:52:14 hrs.
   
  WARNING: Negative pressures at 159:52:55 hrs.
   
  WARNING: Negative pressures at 159:57:49 hrs.
   
  WARNING: Negative pressures at 160:00:00 hrs.
   
  WARNING: Negative pressures at 160:05:02 hrs.
   
  WARNING: Negative pressures at 160:10:07 hrs.
   
  WARNING: Negative pressures at 160:17:19 hrs.
   
  WARNING: Negative pressures at 160:22:23 hrs.
   
  WARNING: Negative pressures at 160:27:33 hrs.
   
  WARNING: Negative pressures at 160:29:36 hrs.
   
  WARNING: Negative pressures at 160:34:41 hrs.
   
  WARNING: Negative pressures at 160:41:53 hrs.
   
  WARNING: Negative pressures at 160:42:09 hrs.
   
  WARNING: Negative pressures at 160:47:26 hrs.
   
  WARNING: Negative pressures at 160:54:38 hrs.
   
  WARNING: Negative pressures at 160:59:42 hrs.
   
  WARNING: Negative pressures at 161:00:00 hrs.
   
  WARNING: Negative pressures at 161:07:00 hrs.
   
  WARNING: Negative pressures at 161:12:00 hrs.
   
  WARNING: Negative pressures at 161:19:18 hrs.
   
  WARNING: Negative pressures at 161:23:41 hrs.
   
  WARNING: Negative pressures at 161:24:27 hrs.
   
  WARNING: Negative pressures at 161:30:17 hrs.
   
  WARNING: Negative pressures at 161:31:46 hrs.
   
  WARNING: Negative pressures at 161:36:46 hrs.
   
  WARNING: Negative pressures at 161:42:55 hrs.
   
  WARNING: Negative pressures at 161:44:05 hrs.
   
  WARNING: Negative pressures at 161:49:06 hrs.
   
  WARNING: Negative pressures at 161:52:48 hrs.
   
  WARNING: Negative pressures at 161:56:27 hrs.
   
  WARNING: Negative pressures at 162:00:00 hrs.
   
  WARNING: Negative pressures at 162:01:35 hrs.
   
  WARNING: Negative pressures at 162:08:59 hrs.
   
  WARNING: Negative pressures at 162:13:57 hrs.
   
  WARNING: Negative pressures at 162:21:20 hrs.
   
  WARNING: Negative pressures at 162:26:18 hrs.
   
  WARNING: Negative pressures at 162:27:41 hrs.
   
  WARNING: Negative pressures at 162:33:43 hrs.
   
  WARNING: Negative pressures at 162:38:41 hrs.
   
  WARNING: Negative pressures at 162:46:05 hrs.
   
  WARNING: Negative pressures at 162:51:03 hrs.
   
  WARNING: Negative pressures at 162:58:27 hrs.
   
  WARNING: Negative pressures at 163:00:00 hrs.
   
  WARNING: Negative pressures at 163:03:29 hrs.
   
  WARNING: Negative pressures at 163:11:04 hrs.
   
  WARNING: Negative pressures at 163:15:56 hrs.
   
  WARNING: Negative pressures at 163:23:30 hrs.
   
  WARNING: Negative pressures at 163:28:18 hrs.
   
  WARNING: Negative pressures at 163:28:22 hrs.
   
  WARNING: Negative pressures at 163:35:56 hrs.
   
  WARNING: Negative pressures at 163:40:45 hrs.
   
  WARNING: Negative pressures at 163:48:20 hrs.
   
  WARNING: Negative pressures at 163:53:09 hrs.
   
  WARNING: Negative pressures at 164:00:00 hrs.
   
  WARNING: Negative pressures at 164:00:47 hrs.
   
  WARNING: Negative pressures at 164:05:23 hrs.
   
  WARNING: Negative pressures at 164:13:25 hrs.
   
  WARNING: Negative pressures at 164:18:01 hrs.
   
  WARNING: Negative pressures at 164:26:04 hrs.
   
  WARNING: Negative pressures at 164:30:40 hrs.
   
  WARNING: Negative pressures at 164:38:42 hrs.
   
  WARNING: Negative pressures at 164:43:18 hrs.
   
  WARNING: Negative pressures at 164:51:21 hrs.
   
  WARNING: Negative pressures at 164:55:57 hrs.
   
  WARNING: Negative pressures at 165:00:00 hrs.
   
  WARNING: Negative pressures at 165:00:56 hrs.
   
  WARNING: Negative pressures at 165:04:15 hrs.
   
  WARNING: Negative pressures at 165:04:27 hrs.
   
  WARNING: Negative pressures at 165:08:30 hrs.
   
  WARNING: Negative pressures at 165:08:44 hrs.
   
  WARNING: Negative pressures at 165:16:59 hrs.
   
  WARNING: Negative pressures at 165:17:28 hrs.
   
  WARNING: Negative pressures at 165:21:16 hrs.
   
  WARNING: Negative pressures at 165:21:29 hrs.
   
  WARNING: Negative pressures at 165:29:45 hrs.
   
  WARNING: Negative pressures at 165:30:14 hrs.
   
  WARNING: Negative pressures at 165:34:02 hrs.
   
  WARNING: Negative pressures at 165:34:15 hrs.
   
  WARNING: Negative pressures at 165:42:31 hrs.
   
  WARNING: Negative pressures at 165:43:00 hrs.
   
  WARNING: Negative pressures at 165:46:48 hrs.
   
  WARNING: Negative pressures at 165:47:01 hrs.
   
  WARNING: Negative pressures at 165:55:18 hrs.
   
  WARNING: Negative pressures at 165:55:47 hrs.
   
  WARNING: Negative pressures at 165:59:35 hrs.
   
  WARNING: Negative pressures at 165:59:48 hrs.
   
  WARNING: Negative pressures at 166:00:00 hrs.
   
  WARNING: Negative pressures at 166:00:01 hrs.
   
  WARNING: Negative pressures at 166:08:21 hrs.
   
  WARNING: Negative pressures at 166:08:32 hrs.
   
  WARNING: Negative pressures at 166:12:31 hrs.
   
  WARNING: Negative pressures at 166:12:36 hrs.
   
  WARNING: Negative pressures at 166:21:18 hrs.
   
  WARNING: Negative pressures at 166:21:29 hrs.
   
  WARNING: Negative pressures at 166:25:28 hrs.
   
  WARNING: Negative pressures at 166:25:33 hrs.
   
  WARNING: Negative pressures at 166:34:14 hrs.
   
  WARNING: Negative pressures at 166:34:25 hrs.
   
  WARNING: Negative pressures at 166:38:24 hrs.
   
  WARNING: Negative pressures at 166:38:29 hrs.
   
  WARNING: Negative pressures at 166:47:11 hrs.
   
  WARNING: Negative pressures at 166:47:22 hrs.
   
  WARNING: Negative pressures at 166:51:21 hrs.
   
  WARNING: Negative pressures at 166:51:26 hrs.
   
  WARNING: Negative pressures at 167:00:00 hrs.
   
  WARNING: Negative pressures at 167:00:08 hrs.
   
  WARNING: Negative pressures at 167:00:11 hrs.
   
  WARNING: Negative pressures at 167:04:13 hrs.
   
  WARNING: Negative pressures at 167:13:15 hrs.
   
  WARNING: Negative pressures at 167:17:20 hrs.
   
  WARNING: Negative pressures at 167:26:23 hrs.
   
  WARNING: Negative pressures at 167:30:28 hrs.
   
  WARNING: Negative pressures at 167:39:31 hrs.
   
  WARNING: Negative pressures at 167:43:36 hrs.
   
  WARNING: Negative pressures at 167:52:39 hrs.
   
  WARNING: Negative pressures at 167:56:44 hrs.
   
  WARNING: Negative pressures at 168:00:00 hrs.
   
  Analysis ended Fri Jan 29 11:44:17 2021
