  Page 1                                    Mon Mar 01 19:00:14 2021

  ******************************************************************
  *                           E P A N E T                          *
  *                   Hydraulic and Water Quality                  *
  *                   Analysis for Pipe Networks                   *
  *                         Version 2.2                            *
  ******************************************************************
  
  Analysis begun Mon Mar 01 19:00:14 2021

  Analysis ended Mon Mar 01 19:00:14 2021
