  Page 1                                    Sun Feb 14 02:53:20 2021

  ******************************************************************
  *                           E P A N E T                          *
  *                   Hydraulic and Water Quality                  *
  *                   Analysis for Pipe Networks                   *
  *                         Version 2.2                            *
  ******************************************************************
  
  Analysis begun Sun Feb 14 02:53:20 2021

  WARNING: Negative pressures at 0:00:00 hrs.
   
  WARNING: Negative pressures at 0:00:52 hrs.
   
  WARNING: Negative pressures at 0:00:55 hrs.
   
  WARNING: Negative pressures at 0:28:54 hrs.
   
  WARNING: Negative pressures at 0:30:18 hrs.
   
  WARNING: Negative pressures at 0:33:29 hrs.
   
  WARNING: Negative pressures at 0:33:39 hrs.
   
  WARNING: Negative pressures at 0:35:09 hrs.
   
  WARNING: Negative pressures at 0:35:14 hrs.
   
  WARNING: Negative pressures at 1:00:00 hrs.
   
  WARNING: Negative pressures at 1:01:14 hrs.
   
  WARNING: Negative pressures at 1:04:54 hrs.
   
  WARNING: Negative pressures at 1:05:05 hrs.
   
  WARNING: Negative pressures at 1:07:41 hrs.
   
  WARNING: Negative pressures at 1:07:46 hrs.
   
  WARNING: Negative pressures at 1:09:20 hrs.
   
  WARNING: Negative pressures at 1:09:23 hrs.
   
  WARNING: Negative pressures at 1:17:57 hrs.
   
  WARNING: Negative pressures at 1:18:14 hrs.
   
  WARNING: Negative pressures at 1:33:41 hrs.
   
  WARNING: Negative pressures at 1:33:55 hrs.
   
  WARNING: Negative pressures at 1:41:29 hrs.
   
  WARNING: Negative pressures at 1:41:36 hrs.
   
  WARNING: Negative pressures at 1:43:08 hrs.
   
  WARNING: Negative pressures at 1:43:10 hrs.
   
  WARNING: Negative pressures at 2:00:00 hrs.
   
  WARNING: Negative pressures at 2:00:16 hrs.
   
  WARNING: Negative pressures at 2:14:50 hrs.
   
  WARNING: Negative pressures at 2:15:10 hrs.
   
  WARNING: Negative pressures at 2:16:30 hrs.
   
  WARNING: Negative pressures at 2:16:32 hrs.
   
  WARNING: Negative pressures at 2:47:41 hrs.
   
  WARNING: Negative pressures at 2:48:24 hrs.
   
  WARNING: Negative pressures at 2:49:23 hrs.
   
  WARNING: Negative pressures at 2:49:24 hrs.
   
  WARNING: Negative pressures at 3:00:00 hrs.
   
  WARNING: Negative pressures at 3:00:15 hrs.
   
  WARNING: Negative pressures at 3:20:40 hrs.
   
  WARNING: Negative pressures at 3:21:11 hrs.
   
  WARNING: Negative pressures at 3:22:22 hrs.
   
  WARNING: Negative pressures at 3:22:24 hrs.
   
  WARNING: Negative pressures at 3:47:38 hrs.
   
  WARNING: Negative pressures at 3:48:30 hrs.
   
  WARNING: Negative pressures at 3:53:32 hrs.
   
  WARNING: Negative pressures at 3:54:06 hrs.
   
  WARNING: Negative pressures at 3:56:41 hrs.
   
  WARNING: Negative pressures at 3:56:59 hrs.
   
  WARNING: Negative pressures at 4:00:00 hrs.
   
  WARNING: Negative pressures at 4:00:21 hrs.
   
  WARNING: Negative pressures at 4:27:08 hrs.
   
  WARNING: Negative pressures at 4:30:23 hrs.
   
  WARNING: Negative pressures at 4:30:28 hrs.
   
  WARNING: Negative pressures at 5:00:00 hrs.
   
  WARNING: Negative pressures at 5:00:52 hrs.
   
  WARNING: Negative pressures at 5:03:36 hrs.
   
  WARNING: Negative pressures at 5:04:06 hrs.
   
  WARNING: Negative pressures at 5:04:09 hrs.
   
  WARNING: Negative pressures at 5:35:36 hrs.
   
  WARNING: Negative pressures at 5:38:50 hrs.
   
  WARNING: Negative pressures at 5:39:02 hrs.
   
  WARNING: Negative pressures at 6:00:00 hrs.
   
  WARNING: Negative pressures at 6:06:58 hrs.
   
  WARNING: Negative pressures at 6:10:24 hrs.
   
  WARNING: Negative pressures at 6:10:35 hrs.
   
  WARNING: Negative pressures at 6:17:43 hrs.
   
  WARNING: Negative pressures at 6:22:41 hrs.
   
  WARNING: Negative pressures at 6:29:53 hrs.
   
  WARNING: Negative pressures at 6:34:51 hrs.
   
  WARNING: Negative pressures at 6:42:03 hrs.
   
  WARNING: Negative pressures at 6:47:01 hrs.
   
  WARNING: Negative pressures at 6:54:13 hrs.
   
  WARNING: Negative pressures at 6:59:11 hrs.
   
  WARNING: Negative pressures at 7:00:00 hrs.
   
  WARNING: Negative pressures at 7:05:54 hrs.
   
  WARNING: Negative pressures at 7:11:14 hrs.
   
  WARNING: Negative pressures at 7:17:53 hrs.
   
  WARNING: Negative pressures at 7:23:13 hrs.
   
  WARNING: Negative pressures at 7:29:52 hrs.
   
  WARNING: Negative pressures at 7:35:12 hrs.
   
  WARNING: Negative pressures at 7:41:51 hrs.
   
  WARNING: Negative pressures at 7:47:11 hrs.
   
  WARNING: Negative pressures at 7:53:49 hrs.
   
  WARNING: Negative pressures at 7:59:09 hrs.
   
  WARNING: Negative pressures at 8:00:00 hrs.
   
  WARNING: Negative pressures at 8:05:37 hrs.
   
  WARNING: Negative pressures at 8:09:04 hrs.
   
  WARNING: Negative pressures at 8:11:18 hrs.
   
  WARNING: Negative pressures at 8:17:44 hrs.
   
  WARNING: Negative pressures at 8:23:15 hrs.
   
  WARNING: Negative pressures at 8:29:41 hrs.
   
  WARNING: Negative pressures at 8:35:11 hrs.
   
  WARNING: Negative pressures at 8:41:36 hrs.
   
  WARNING: Negative pressures at 8:47:06 hrs.
   
  WARNING: Negative pressures at 8:53:31 hrs.
   
  WARNING: Negative pressures at 8:59:01 hrs.
   
  WARNING: Negative pressures at 9:00:00 hrs.
   
  WARNING: Negative pressures at 9:05:20 hrs.
   
  WARNING: Negative pressures at 9:10:57 hrs.
   
  WARNING: Negative pressures at 9:15:29 hrs.
   
  WARNING: Negative pressures at 9:17:16 hrs.
   
  WARNING: Negative pressures at 9:22:53 hrs.
   
  WARNING: Negative pressures at 9:28:09 hrs.
   
  WARNING: Negative pressures at 9:29:12 hrs.
   
  WARNING: Negative pressures at 9:34:49 hrs.
   
  WARNING: Negative pressures at 9:41:06 hrs.
   
  WARNING: Negative pressures at 9:46:43 hrs.
   
  WARNING: Negative pressures at 9:53:01 hrs.
   
  WARNING: Negative pressures at 9:58:38 hrs.
   
  WARNING: Negative pressures at 10:00:00 hrs.
   
  WARNING: Negative pressures at 10:03:21 hrs.
   
  WARNING: Negative pressures at 10:04:59 hrs.
   
  WARNING: Negative pressures at 10:10:34 hrs.
   
  WARNING: Negative pressures at 10:16:55 hrs.
   
  WARNING: Negative pressures at 10:22:30 hrs.
   
  WARNING: Negative pressures at 10:28:51 hrs.
   
  WARNING: Negative pressures at 10:34:26 hrs.
   
  WARNING: Negative pressures at 10:40:46 hrs.
   
  WARNING: Negative pressures at 10:46:21 hrs.
   
  WARNING: Negative pressures at 10:52:41 hrs.
   
  WARNING: Negative pressures at 10:58:16 hrs.
   
  WARNING: Negative pressures at 11:00:00 hrs.
   
  WARNING: Negative pressures at 11:04:38 hrs.
   
  WARNING: Negative pressures at 11:10:12 hrs.
   
  WARNING: Negative pressures at 11:16:34 hrs.
   
  WARNING: Negative pressures at 11:22:08 hrs.
   
  WARNING: Negative pressures at 11:28:30 hrs.
   
  WARNING: Negative pressures at 11:34:05 hrs.
   
  WARNING: Negative pressures at 11:40:27 hrs.
   
  WARNING: Negative pressures at 11:46:01 hrs.
   
  WARNING: Negative pressures at 11:52:22 hrs.
   
  WARNING: Negative pressures at 11:57:56 hrs.
   
  WARNING: Negative pressures at 12:00:00 hrs.
   
  WARNING: Negative pressures at 12:04:21 hrs.
   
  WARNING: Negative pressures at 12:09:49 hrs.
   
  WARNING: Negative pressures at 12:16:15 hrs.
   
  WARNING: Negative pressures at 12:21:44 hrs.
   
  WARNING: Negative pressures at 12:28:10 hrs.
   
  WARNING: Negative pressures at 12:28:54 hrs.
   
  WARNING: Negative pressures at 12:33:47 hrs.
   
  WARNING: Negative pressures at 12:40:13 hrs.
   
  WARNING: Negative pressures at 12:45:46 hrs.
   
  WARNING: Negative pressures at 12:52:12 hrs.
   
  WARNING: Negative pressures at 12:57:45 hrs.
   
  WARNING: Negative pressures at 13:00:00 hrs.
   
  WARNING: Negative pressures at 13:04:13 hrs.
   
  WARNING: Negative pressures at 13:09:44 hrs.
   
  WARNING: Negative pressures at 13:16:12 hrs.
   
  WARNING: Negative pressures at 13:21:43 hrs.
   
  WARNING: Negative pressures at 13:28:11 hrs.
   
  WARNING: Negative pressures at 13:33:42 hrs.
   
  WARNING: Negative pressures at 13:40:10 hrs.
   
  WARNING: Negative pressures at 13:45:42 hrs.
   
  WARNING: Negative pressures at 13:52:10 hrs.
   
  WARNING: Negative pressures at 13:57:41 hrs.
   
  WARNING: Negative pressures at 14:00:00 hrs.
   
  WARNING: Negative pressures at 14:04:13 hrs.
   
  WARNING: Negative pressures at 14:09:40 hrs.
   
  WARNING: Negative pressures at 14:16:14 hrs.
   
  WARNING: Negative pressures at 14:21:41 hrs.
   
  WARNING: Negative pressures at 14:28:14 hrs.
   
  WARNING: Negative pressures at 14:33:40 hrs.
   
  WARNING: Negative pressures at 14:40:12 hrs.
   
  WARNING: Negative pressures at 14:45:38 hrs.
   
  WARNING: Negative pressures at 14:52:10 hrs.
   
  WARNING: Negative pressures at 14:57:36 hrs.
   
  WARNING: Negative pressures at 15:00:00 hrs.
   
  WARNING: Negative pressures at 15:04:10 hrs.
   
  WARNING: Negative pressures at 15:09:35 hrs.
   
  WARNING: Negative pressures at 15:16:09 hrs.
   
  WARNING: Negative pressures at 15:21:34 hrs.
   
  WARNING: Negative pressures at 15:28:08 hrs.
   
  WARNING: Negative pressures at 15:33:33 hrs.
   
  WARNING: Negative pressures at 15:40:07 hrs.
   
  WARNING: Negative pressures at 15:45:33 hrs.
   
  WARNING: Negative pressures at 15:50:11 hrs.
   
  WARNING: Negative pressures at 15:52:08 hrs.
   
  WARNING: Negative pressures at 15:57:30 hrs.
   
  WARNING: Negative pressures at 16:00:00 hrs.
   
  WARNING: Negative pressures at 16:04:06 hrs.
   
  WARNING: Negative pressures at 16:09:28 hrs.
   
  WARNING: Negative pressures at 16:16:03 hrs.
   
  WARNING: Negative pressures at 16:21:24 hrs.
   
  WARNING: Negative pressures at 16:27:58 hrs.
   
  WARNING: Negative pressures at 16:33:19 hrs.
   
  WARNING: Negative pressures at 16:39:53 hrs.
   
  WARNING: Negative pressures at 16:45:15 hrs.
   
  WARNING: Negative pressures at 16:51:50 hrs.
   
  WARNING: Negative pressures at 16:57:12 hrs.
   
  WARNING: Negative pressures at 17:00:00 hrs.
   
  WARNING: Negative pressures at 17:03:51 hrs.
   
  WARNING: Negative pressures at 17:09:09 hrs.
   
  WARNING: Negative pressures at 17:15:49 hrs.
   
  WARNING: Negative pressures at 17:21:07 hrs.
   
  WARNING: Negative pressures at 17:27:47 hrs.
   
  WARNING: Negative pressures at 17:33:05 hrs.
   
  WARNING: Negative pressures at 17:39:45 hrs.
   
  WARNING: Negative pressures at 17:45:03 hrs.
   
  WARNING: Negative pressures at 17:51:43 hrs.
   
  WARNING: Negative pressures at 17:57:01 hrs.
   
  WARNING: Negative pressures at 18:00:00 hrs.
   
  WARNING: Negative pressures at 18:01:42 hrs.
   
  WARNING: Negative pressures at 18:03:32 hrs.
   
  WARNING: Negative pressures at 18:09:18 hrs.
   
  WARNING: Negative pressures at 18:15:22 hrs.
   
  WARNING: Negative pressures at 18:21:08 hrs.
   
  WARNING: Negative pressures at 18:27:11 hrs.
   
  WARNING: Negative pressures at 18:32:56 hrs.
   
  WARNING: Negative pressures at 18:38:59 hrs.
   
  WARNING: Negative pressures at 18:44:44 hrs.
   
  WARNING: Negative pressures at 18:50:47 hrs.
   
  WARNING: Negative pressures at 18:56:33 hrs.
   
  WARNING: Negative pressures at 19:00:00 hrs.
   
  WARNING: Negative pressures at 19:02:41 hrs.
   
  WARNING: Negative pressures at 19:08:17 hrs.
   
  WARNING: Negative pressures at 19:14:31 hrs.
   
  WARNING: Negative pressures at 19:20:06 hrs.
   
  WARNING: Negative pressures at 19:26:20 hrs.
   
  WARNING: Negative pressures at 19:31:54 hrs.
   
  WARNING: Negative pressures at 19:38:09 hrs.
   
  WARNING: Negative pressures at 19:43:43 hrs.
   
  WARNING: Negative pressures at 19:49:59 hrs.
   
  WARNING: Negative pressures at 19:55:32 hrs.
   
  WARNING: Negative pressures at 20:00:00 hrs.
   
  WARNING: Negative pressures at 20:01:57 hrs.
   
  WARNING: Negative pressures at 20:07:09 hrs.
   
  WARNING: Negative pressures at 20:13:52 hrs.
   
  WARNING: Negative pressures at 20:19:04 hrs.
   
  WARNING: Negative pressures at 20:25:49 hrs.
   
  WARNING: Negative pressures at 20:26:25 hrs.
   
  WARNING: Negative pressures at 20:30:46 hrs.
   
  WARNING: Negative pressures at 20:30:58 hrs.
   
  WARNING: Negative pressures at 20:37:31 hrs.
   
  WARNING: Negative pressures at 20:37:48 hrs.
   
  WARNING: Negative pressures at 20:42:25 hrs.
   
  WARNING: Negative pressures at 20:42:38 hrs.
   
  WARNING: Negative pressures at 20:49:11 hrs.
   
  WARNING: Negative pressures at 20:49:28 hrs.
   
  WARNING: Negative pressures at 20:54:05 hrs.
   
  WARNING: Negative pressures at 20:54:18 hrs.
   
  WARNING: Negative pressures at 21:00:00 hrs.
   
  WARNING: Negative pressures at 21:00:14 hrs.
   
  WARNING: Negative pressures at 21:00:54 hrs.
   
  WARNING: Negative pressures at 21:05:28 hrs.
   
  WARNING: Negative pressures at 21:12:50 hrs.
   
  WARNING: Negative pressures at 21:17:24 hrs.
   
  WARNING: Negative pressures at 21:24:47 hrs.
   
  WARNING: Negative pressures at 21:29:21 hrs.
   
  WARNING: Negative pressures at 21:36:43 hrs.
   
  WARNING: Negative pressures at 21:41:17 hrs.
   
  WARNING: Negative pressures at 21:48:39 hrs.
   
  WARNING: Negative pressures at 21:53:13 hrs.
   
  WARNING: Negative pressures at 22:00:00 hrs.
   
  WARNING: Negative pressures at 22:00:38 hrs.
   
  WARNING: Negative pressures at 22:05:01 hrs.
   
  WARNING: Negative pressures at 22:12:52 hrs.
   
  WARNING: Negative pressures at 22:17:15 hrs.
   
  WARNING: Negative pressures at 22:25:06 hrs.
   
  WARNING: Negative pressures at 22:29:29 hrs.
   
  WARNING: Negative pressures at 22:37:20 hrs.
   
  WARNING: Negative pressures at 22:41:43 hrs.
   
  WARNING: Negative pressures at 22:49:34 hrs.
   
  WARNING: Negative pressures at 22:53:57 hrs.
   
  WARNING: Negative pressures at 23:00:00 hrs.
   
  WARNING: Negative pressures at 23:01:53 hrs.
   
  WARNING: Negative pressures at 23:06:10 hrs.
   
  WARNING: Negative pressures at 23:14:19 hrs.
   
  WARNING: Negative pressures at 23:18:35 hrs.
   
  WARNING: Negative pressures at 23:26:43 hrs.
   
  WARNING: Negative pressures at 23:31:00 hrs.
   
  WARNING: Negative pressures at 23:39:10 hrs.
   
  WARNING: Negative pressures at 23:43:27 hrs.
   
  WARNING: Negative pressures at 23:51:36 hrs.
   
  WARNING: Negative pressures at 23:55:52 hrs.
   
  WARNING: Negative pressures at 24:00:00 hrs.
   
  WARNING: Negative pressures at 24:04:10 hrs.
   
  WARNING: Negative pressures at 24:08:22 hrs.
   
  WARNING: Negative pressures at 24:16:49 hrs.
   
  WARNING: Negative pressures at 24:21:01 hrs.
   
  WARNING: Negative pressures at 24:29:28 hrs.
   
  WARNING: Negative pressures at 24:33:40 hrs.
   
  WARNING: Negative pressures at 24:42:06 hrs.
   
  WARNING: Negative pressures at 24:46:18 hrs.
   
  WARNING: Negative pressures at 24:54:45 hrs.
   
  WARNING: Negative pressures at 24:58:57 hrs.
   
  WARNING: Negative pressures at 25:00:00 hrs.
   
  WARNING: Negative pressures at 25:07:21 hrs.
   
  WARNING: Negative pressures at 25:11:34 hrs.
   
  WARNING: Negative pressures at 25:19:57 hrs.
   
  WARNING: Negative pressures at 25:24:10 hrs.
   
  WARNING: Negative pressures at 25:32:33 hrs.
   
  WARNING: Negative pressures at 25:36:46 hrs.
   
  WARNING: Negative pressures at 25:45:09 hrs.
   
  WARNING: Negative pressures at 25:49:22 hrs.
   
  WARNING: Negative pressures at 25:57:45 hrs.
   
  WARNING: Negative pressures at 26:00:00 hrs.
   
  WARNING: Negative pressures at 26:02:05 hrs.
   
  WARNING: Negative pressures at 26:10:21 hrs.
   
  WARNING: Negative pressures at 26:14:36 hrs.
   
  WARNING: Negative pressures at 26:22:53 hrs.
   
  WARNING: Negative pressures at 26:27:08 hrs.
   
  WARNING: Negative pressures at 26:35:25 hrs.
   
  WARNING: Negative pressures at 26:39:40 hrs.
   
  WARNING: Negative pressures at 26:47:57 hrs.
   
  WARNING: Negative pressures at 26:52:12 hrs.
   
  WARNING: Negative pressures at 27:00:00 hrs.
   
  WARNING: Negative pressures at 27:00:29 hrs.
   
  WARNING: Negative pressures at 27:04:44 hrs.
   
  WARNING: Negative pressures at 27:12:59 hrs.
   
  WARNING: Negative pressures at 27:17:14 hrs.
   
  WARNING: Negative pressures at 27:25:28 hrs.
   
  WARNING: Negative pressures at 27:29:43 hrs.
   
  WARNING: Negative pressures at 27:37:58 hrs.
   
  WARNING: Negative pressures at 27:42:13 hrs.
   
  WARNING: Negative pressures at 27:50:28 hrs.
   
  WARNING: Negative pressures at 27:54:43 hrs.
   
  WARNING: Negative pressures at 28:00:00 hrs.
   
  WARNING: Negative pressures at 28:02:57 hrs.
   
  WARNING: Negative pressures at 28:07:14 hrs.
   
  WARNING: Negative pressures at 28:15:23 hrs.
   
  WARNING: Negative pressures at 28:19:40 hrs.
   
  WARNING: Negative pressures at 28:27:49 hrs.
   
  WARNING: Negative pressures at 28:32:06 hrs.
   
  WARNING: Negative pressures at 28:40:15 hrs.
   
  WARNING: Negative pressures at 28:44:32 hrs.
   
  WARNING: Negative pressures at 28:52:41 hrs.
   
  WARNING: Negative pressures at 28:56:58 hrs.
   
  WARNING: Negative pressures at 29:00:00 hrs.
   
  WARNING: Negative pressures at 29:05:14 hrs.
   
  WARNING: Negative pressures at 29:09:28 hrs.
   
  WARNING: Negative pressures at 29:17:06 hrs.
   
  WARNING: Negative pressures at 29:17:45 hrs.
   
  WARNING: Negative pressures at 29:22:03 hrs.
   
  WARNING: Negative pressures at 29:30:15 hrs.
   
  WARNING: Negative pressures at 29:34:33 hrs.
   
  WARNING: Negative pressures at 29:42:45 hrs.
   
  WARNING: Negative pressures at 29:47:03 hrs.
   
  WARNING: Negative pressures at 29:55:15 hrs.
   
  WARNING: Negative pressures at 29:59:33 hrs.
   
  WARNING: Negative pressures at 30:00:00 hrs.
   
  WARNING: Negative pressures at 30:06:46 hrs.
   
  WARNING: Negative pressures at 30:11:49 hrs.
   
  WARNING: Negative pressures at 30:18:59 hrs.
   
  WARNING: Negative pressures at 30:24:02 hrs.
   
  WARNING: Negative pressures at 30:31:12 hrs.
   
  WARNING: Negative pressures at 30:36:14 hrs.
   
  WARNING: Negative pressures at 30:43:22 hrs.
   
  WARNING: Negative pressures at 30:48:24 hrs.
   
  WARNING: Negative pressures at 30:55:33 hrs.
   
  WARNING: Negative pressures at 31:00:00 hrs.
   
  WARNING: Negative pressures at 31:00:43 hrs.
   
  WARNING: Negative pressures at 31:07:20 hrs.
   
  WARNING: Negative pressures at 31:12:45 hrs.
   
  WARNING: Negative pressures at 31:19:22 hrs.
   
  WARNING: Negative pressures at 31:24:47 hrs.
   
  WARNING: Negative pressures at 31:31:24 hrs.
   
  WARNING: Negative pressures at 31:36:49 hrs.
   
  WARNING: Negative pressures at 31:43:25 hrs.
   
  WARNING: Negative pressures at 31:48:50 hrs.
   
  WARNING: Negative pressures at 31:55:27 hrs.
   
  WARNING: Negative pressures at 32:00:00 hrs.
   
  WARNING: Negative pressures at 32:01:00 hrs.
   
  WARNING: Negative pressures at 32:07:24 hrs.
   
  WARNING: Negative pressures at 32:12:00 hrs.
   
  WARNING: Negative pressures at 32:13:06 hrs.
   
  WARNING: Negative pressures at 32:18:23 hrs.
   
  WARNING: Negative pressures at 32:19:31 hrs.
   
  WARNING: Negative pressures at 32:25:03 hrs.
   
  WARNING: Negative pressures at 32:31:27 hrs.
   
  WARNING: Negative pressures at 32:33:51 hrs.
   
  WARNING: Negative pressures at 32:37:10 hrs.
   
  WARNING: Negative pressures at 32:43:34 hrs.
   
  WARNING: Negative pressures at 32:49:06 hrs.
   
  WARNING: Negative pressures at 32:55:30 hrs.
   
  WARNING: Negative pressures at 33:00:00 hrs.
   
  WARNING: Negative pressures at 33:01:11 hrs.
   
  WARNING: Negative pressures at 33:07:28 hrs.
   
  WARNING: Negative pressures at 33:13:06 hrs.
   
  WARNING: Negative pressures at 33:17:50 hrs.
   
  WARNING: Negative pressures at 33:19:23 hrs.
   
  WARNING: Negative pressures at 33:25:02 hrs.
   
  WARNING: Negative pressures at 33:30:06 hrs.
   
  WARNING: Negative pressures at 33:31:19 hrs.
   
  WARNING: Negative pressures at 33:36:57 hrs.
   
  WARNING: Negative pressures at 33:43:12 hrs.
   
  WARNING: Negative pressures at 33:48:50 hrs.
   
  WARNING: Negative pressures at 33:55:06 hrs.
   
  WARNING: Negative pressures at 34:00:00 hrs.
   
  WARNING: Negative pressures at 34:00:50 hrs.
   
  WARNING: Negative pressures at 34:02:08 hrs.
   
  WARNING: Negative pressures at 34:03:45 hrs.
   
  WARNING: Negative pressures at 34:06:38 hrs.
   
  WARNING: Negative pressures at 34:12:53 hrs.
   
  WARNING: Negative pressures at 34:18:32 hrs.
   
  WARNING: Negative pressures at 34:24:48 hrs.
   
  WARNING: Negative pressures at 34:30:27 hrs.
   
  WARNING: Negative pressures at 34:36:43 hrs.
   
  WARNING: Negative pressures at 34:42:22 hrs.
   
  WARNING: Negative pressures at 34:48:38 hrs.
   
  WARNING: Negative pressures at 34:54:17 hrs.
   
  WARNING: Negative pressures at 35:00:00 hrs.
   
  WARNING: Negative pressures at 35:00:39 hrs.
   
  WARNING: Negative pressures at 35:06:19 hrs.
   
  WARNING: Negative pressures at 35:12:34 hrs.
   
  WARNING: Negative pressures at 35:18:14 hrs.
   
  WARNING: Negative pressures at 35:24:29 hrs.
   
  WARNING: Negative pressures at 35:30:09 hrs.
   
  WARNING: Negative pressures at 35:36:25 hrs.
   
  WARNING: Negative pressures at 35:42:05 hrs.
   
  WARNING: Negative pressures at 35:48:20 hrs.
   
  WARNING: Negative pressures at 35:53:59 hrs.
   
  WARNING: Negative pressures at 36:00:00 hrs.
   
  WARNING: Negative pressures at 36:00:17 hrs.
   
  WARNING: Negative pressures at 36:06:02 hrs.
   
  WARNING: Negative pressures at 36:12:10 hrs.
   
  WARNING: Negative pressures at 36:17:54 hrs.
   
  WARNING: Negative pressures at 36:24:01 hrs.
   
  WARNING: Negative pressures at 36:29:45 hrs.
   
  WARNING: Negative pressures at 36:35:53 hrs.
   
  WARNING: Negative pressures at 36:41:37 hrs.
   
  WARNING: Negative pressures at 36:47:45 hrs.
   
  WARNING: Negative pressures at 36:53:29 hrs.
   
  WARNING: Negative pressures at 36:59:37 hrs.
   
  WARNING: Negative pressures at 37:00:00 hrs.
   
  WARNING: Negative pressures at 37:05:23 hrs.
   
  WARNING: Negative pressures at 37:11:28 hrs.
   
  WARNING: Negative pressures at 37:17:14 hrs.
   
  WARNING: Negative pressures at 37:23:20 hrs.
   
  WARNING: Negative pressures at 37:29:06 hrs.
   
  WARNING: Negative pressures at 37:35:12 hrs.
   
  WARNING: Negative pressures at 37:40:58 hrs.
   
  WARNING: Negative pressures at 37:47:04 hrs.
   
  WARNING: Negative pressures at 37:52:50 hrs.
   
  WARNING: Negative pressures at 37:58:56 hrs.
   
  WARNING: Negative pressures at 38:00:00 hrs.
   
  WARNING: Negative pressures at 38:04:47 hrs.
   
  WARNING: Negative pressures at 38:10:46 hrs.
   
  WARNING: Negative pressures at 38:16:38 hrs.
   
  WARNING: Negative pressures at 38:22:37 hrs.
   
  WARNING: Negative pressures at 38:28:28 hrs.
   
  WARNING: Negative pressures at 38:34:26 hrs.
   
  WARNING: Negative pressures at 38:40:17 hrs.
   
  WARNING: Negative pressures at 38:46:16 hrs.
   
  WARNING: Negative pressures at 38:52:07 hrs.
   
  WARNING: Negative pressures at 38:58:06 hrs.
   
  WARNING: Negative pressures at 39:00:00 hrs.
   
  WARNING: Negative pressures at 39:03:59 hrs.
   
  WARNING: Negative pressures at 39:09:56 hrs.
   
  WARNING: Negative pressures at 39:15:49 hrs.
   
  WARNING: Negative pressures at 39:21:46 hrs.
   
  WARNING: Negative pressures at 39:27:39 hrs.
   
  WARNING: Negative pressures at 39:33:36 hrs.
   
  WARNING: Negative pressures at 39:39:29 hrs.
   
  WARNING: Negative pressures at 39:45:26 hrs.
   
  WARNING: Negative pressures at 39:51:18 hrs.
   
  WARNING: Negative pressures at 39:57:15 hrs.
   
  WARNING: Negative pressures at 40:00:00 hrs.
   
  WARNING: Negative pressures at 40:03:09 hrs.
   
  WARNING: Negative pressures at 40:09:06 hrs.
   
  WARNING: Negative pressures at 40:14:59 hrs.
   
  WARNING: Negative pressures at 40:20:55 hrs.
   
  WARNING: Negative pressures at 40:26:48 hrs.
   
  WARNING: Negative pressures at 40:32:45 hrs.
   
  WARNING: Negative pressures at 40:38:38 hrs.
   
  WARNING: Negative pressures at 40:44:35 hrs.
   
  WARNING: Negative pressures at 40:50:28 hrs.
   
  WARNING: Negative pressures at 40:51:41 hrs.
   
  WARNING: Negative pressures at 40:56:37 hrs.
   
  WARNING: Negative pressures at 41:00:00 hrs.
   
  WARNING: Negative pressures at 41:02:33 hrs.
   
  WARNING: Negative pressures at 41:08:28 hrs.
   
  WARNING: Negative pressures at 41:14:27 hrs.
   
  WARNING: Negative pressures at 41:20:22 hrs.
   
  WARNING: Negative pressures at 41:26:20 hrs.
   
  WARNING: Negative pressures at 41:32:15 hrs.
   
  WARNING: Negative pressures at 41:38:14 hrs.
   
  WARNING: Negative pressures at 41:44:09 hrs.
   
  WARNING: Negative pressures at 41:50:07 hrs.
   
  WARNING: Negative pressures at 41:56:02 hrs.
   
  WARNING: Negative pressures at 42:00:00 hrs.
   
  WARNING: Negative pressures at 42:02:02 hrs.
   
  WARNING: Negative pressures at 42:07:53 hrs.
   
  WARNING: Negative pressures at 42:13:56 hrs.
   
  WARNING: Negative pressures at 42:19:47 hrs.
   
  WARNING: Negative pressures at 42:25:49 hrs.
   
  WARNING: Negative pressures at 42:31:40 hrs.
   
  WARNING: Negative pressures at 42:37:42 hrs.
   
  WARNING: Negative pressures at 42:43:33 hrs.
   
  WARNING: Negative pressures at 42:49:36 hrs.
   
  WARNING: Negative pressures at 42:55:27 hrs.
   
  WARNING: Negative pressures at 43:00:00 hrs.
   
  WARNING: Negative pressures at 43:01:32 hrs.
   
  WARNING: Negative pressures at 43:07:14 hrs.
   
  WARNING: Negative pressures at 43:13:27 hrs.
   
  WARNING: Negative pressures at 43:19:07 hrs.
   
  WARNING: Negative pressures at 43:25:20 hrs.
   
  WARNING: Negative pressures at 43:31:00 hrs.
   
  WARNING: Negative pressures at 43:37:14 hrs.
   
  WARNING: Negative pressures at 43:42:53 hrs.
   
  WARNING: Negative pressures at 43:49:08 hrs.
   
  WARNING: Negative pressures at 43:54:46 hrs.
   
  WARNING: Negative pressures at 44:00:00 hrs.
   
  WARNING: Negative pressures at 44:01:07 hrs.
   
  WARNING: Negative pressures at 44:03:42 hrs.
   
  WARNING: Negative pressures at 44:06:32 hrs.
   
  WARNING: Negative pressures at 44:13:13 hrs.
   
  WARNING: Negative pressures at 44:18:25 hrs.
   
  WARNING: Negative pressures at 44:25:07 hrs.
   
  WARNING: Negative pressures at 44:30:19 hrs.
   
  WARNING: Negative pressures at 44:37:03 hrs.
   
  WARNING: Negative pressures at 44:41:46 hrs.
   
  WARNING: Negative pressures at 44:42:15 hrs.
   
  WARNING: Negative pressures at 44:42:16 hrs.
   
  WARNING: Negative pressures at 44:49:00 hrs.
   
  WARNING: Negative pressures at 44:49:18 hrs.
   
  WARNING: Negative pressures at 44:53:54 hrs.
   
  WARNING: Negative pressures at 44:54:06 hrs.
   
  WARNING: Negative pressures at 45:00:00 hrs.
   
  WARNING: Negative pressures at 45:00:14 hrs.
   
  WARNING: Negative pressures at 45:00:42 hrs.
   
  WARNING: Negative pressures at 45:05:16 hrs.
   
  WARNING: Negative pressures at 45:12:38 hrs.
   
  WARNING: Negative pressures at 45:17:12 hrs.
   
  WARNING: Negative pressures at 45:24:35 hrs.
   
  WARNING: Negative pressures at 45:29:09 hrs.
   
  WARNING: Negative pressures at 45:36:31 hrs.
   
  WARNING: Negative pressures at 45:41:05 hrs.
   
  WARNING: Negative pressures at 45:48:27 hrs.
   
  WARNING: Negative pressures at 45:53:01 hrs.
   
  WARNING: Negative pressures at 46:00:00 hrs.
   
  WARNING: Negative pressures at 46:00:25 hrs.
   
  WARNING: Negative pressures at 46:04:48 hrs.
   
  WARNING: Negative pressures at 46:12:39 hrs.
   
  WARNING: Negative pressures at 46:17:02 hrs.
   
  WARNING: Negative pressures at 46:24:53 hrs.
   
  WARNING: Negative pressures at 46:29:16 hrs.
   
  WARNING: Negative pressures at 46:37:07 hrs.
   
  WARNING: Negative pressures at 46:41:30 hrs.
   
  WARNING: Negative pressures at 46:49:21 hrs.
   
  WARNING: Negative pressures at 46:53:44 hrs.
   
  WARNING: Negative pressures at 47:00:00 hrs.
   
  WARNING: Negative pressures at 47:01:39 hrs.
   
  WARNING: Negative pressures at 47:05:55 hrs.
   
  WARNING: Negative pressures at 47:14:03 hrs.
   
  WARNING: Negative pressures at 47:18:20 hrs.
   
  WARNING: Negative pressures at 47:26:30 hrs.
   
  WARNING: Negative pressures at 47:30:47 hrs.
   
  WARNING: Negative pressures at 47:38:56 hrs.
   
  WARNING: Negative pressures at 47:43:13 hrs.
   
  WARNING: Negative pressures at 47:51:23 hrs.
   
  WARNING: Negative pressures at 47:55:40 hrs.
   
  WARNING: Negative pressures at 48:00:00 hrs.
   
  WARNING: Negative pressures at 48:03:59 hrs.
   
  WARNING: Negative pressures at 48:08:11 hrs.
   
  WARNING: Negative pressures at 48:16:38 hrs.
   
  WARNING: Negative pressures at 48:20:50 hrs.
   
  WARNING: Negative pressures at 48:29:17 hrs.
   
  WARNING: Negative pressures at 48:33:29 hrs.
   
  WARNING: Negative pressures at 48:41:55 hrs.
   
  WARNING: Negative pressures at 48:46:07 hrs.
   
  WARNING: Negative pressures at 48:54:34 hrs.
   
  WARNING: Negative pressures at 48:58:46 hrs.
   
  WARNING: Negative pressures at 49:00:00 hrs.
   
  WARNING: Negative pressures at 49:07:11 hrs.
   
  WARNING: Negative pressures at 49:11:24 hrs.
   
  WARNING: Negative pressures at 49:19:46 hrs.
   
  WARNING: Negative pressures at 49:23:59 hrs.
   
  WARNING: Negative pressures at 49:32:22 hrs.
   
  WARNING: Negative pressures at 49:36:35 hrs.
   
  WARNING: Negative pressures at 49:44:58 hrs.
   
  WARNING: Negative pressures at 49:49:11 hrs.
   
  WARNING: Negative pressures at 49:57:34 hrs.
   
  WARNING: Negative pressures at 50:00:00 hrs.
   
  WARNING: Negative pressures at 50:01:54 hrs.
   
  WARNING: Negative pressures at 50:10:10 hrs.
   
  WARNING: Negative pressures at 50:14:25 hrs.
   
  WARNING: Negative pressures at 50:22:42 hrs.
   
  WARNING: Negative pressures at 50:26:57 hrs.
   
  WARNING: Negative pressures at 50:35:14 hrs.
   
  WARNING: Negative pressures at 50:39:29 hrs.
   
  WARNING: Negative pressures at 50:47:46 hrs.
   
  WARNING: Negative pressures at 50:52:01 hrs.
   
  WARNING: Negative pressures at 51:00:00 hrs.
   
  WARNING: Negative pressures at 51:00:18 hrs.
   
  WARNING: Negative pressures at 51:04:33 hrs.
   
  WARNING: Negative pressures at 51:12:48 hrs.
   
  WARNING: Negative pressures at 51:17:03 hrs.
   
  WARNING: Negative pressures at 51:25:18 hrs.
   
  WARNING: Negative pressures at 51:29:33 hrs.
   
  WARNING: Negative pressures at 51:37:48 hrs.
   
  WARNING: Negative pressures at 51:42:03 hrs.
   
  WARNING: Negative pressures at 51:50:18 hrs.
   
  WARNING: Negative pressures at 51:54:33 hrs.
   
  WARNING: Negative pressures at 52:00:00 hrs.
   
  WARNING: Negative pressures at 52:02:47 hrs.
   
  WARNING: Negative pressures at 52:07:04 hrs.
   
  WARNING: Negative pressures at 52:15:13 hrs.
   
  WARNING: Negative pressures at 52:19:30 hrs.
   
  WARNING: Negative pressures at 52:27:39 hrs.
   
  WARNING: Negative pressures at 52:31:56 hrs.
   
  WARNING: Negative pressures at 52:40:05 hrs.
   
  WARNING: Negative pressures at 52:44:22 hrs.
   
  WARNING: Negative pressures at 52:52:31 hrs.
   
  WARNING: Negative pressures at 52:56:48 hrs.
   
  WARNING: Negative pressures at 53:00:00 hrs.
   
  WARNING: Negative pressures at 53:05:04 hrs.
   
  WARNING: Negative pressures at 53:09:19 hrs.
   
  WARNING: Negative pressures at 53:17:38 hrs.
   
  WARNING: Negative pressures at 53:21:52 hrs.
   
  WARNING: Negative pressures at 53:30:09 hrs.
   
  WARNING: Negative pressures at 53:34:23 hrs.
   
  WARNING: Negative pressures at 53:42:41 hrs.
   
  WARNING: Negative pressures at 53:46:56 hrs.
   
  WARNING: Negative pressures at 53:55:15 hrs.
   
  WARNING: Negative pressures at 53:59:29 hrs.
   
  WARNING: Negative pressures at 54:00:00 hrs.
   
  WARNING: Negative pressures at 54:06:42 hrs.
   
  WARNING: Negative pressures at 54:11:41 hrs.
   
  WARNING: Negative pressures at 54:18:50 hrs.
   
  WARNING: Negative pressures at 54:23:49 hrs.
   
  WARNING: Negative pressures at 54:30:58 hrs.
   
  WARNING: Negative pressures at 54:35:57 hrs.
   
  WARNING: Negative pressures at 54:43:06 hrs.
   
  WARNING: Negative pressures at 54:48:05 hrs.
   
  WARNING: Negative pressures at 54:55:13 hrs.
   
  WARNING: Negative pressures at 55:00:00 hrs.
   
  WARNING: Negative pressures at 55:00:15 hrs.
   
  WARNING: Negative pressures at 55:06:52 hrs.
   
  WARNING: Negative pressures at 55:12:13 hrs.
   
  WARNING: Negative pressures at 55:18:50 hrs.
   
  WARNING: Negative pressures at 55:24:11 hrs.
   
  WARNING: Negative pressures at 55:30:48 hrs.
   
  WARNING: Negative pressures at 55:36:09 hrs.
   
  WARNING: Negative pressures at 55:42:45 hrs.
   
  WARNING: Negative pressures at 55:48:06 hrs.
   
  WARNING: Negative pressures at 55:54:43 hrs.
   
  WARNING: Negative pressures at 56:00:00 hrs.
   
  WARNING: Negative pressures at 56:00:05 hrs.
   
  WARNING: Negative pressures at 56:06:29 hrs.
   
  WARNING: Negative pressures at 56:12:00 hrs.
   
  WARNING: Negative pressures at 56:18:24 hrs.
   
  WARNING: Negative pressures at 56:23:56 hrs.
   
  WARNING: Negative pressures at 56:30:21 hrs.
   
  WARNING: Negative pressures at 56:35:53 hrs.
   
  WARNING: Negative pressures at 56:42:17 hrs.
   
  WARNING: Negative pressures at 56:47:49 hrs.
   
  WARNING: Negative pressures at 56:54:13 hrs.
   
  WARNING: Negative pressures at 56:59:44 hrs.
   
  WARNING: Negative pressures at 57:00:00 hrs.
   
  WARNING: Negative pressures at 57:06:01 hrs.
   
  WARNING: Negative pressures at 57:11:39 hrs.
   
  WARNING: Negative pressures at 57:15:04 hrs.
   
  WARNING: Negative pressures at 57:17:56 hrs.
   
  WARNING: Negative pressures at 57:23:34 hrs.
   
  WARNING: Negative pressures at 57:27:03 hrs.
   
  WARNING: Negative pressures at 57:29:51 hrs.
   
  WARNING: Negative pressures at 57:35:29 hrs.
   
  WARNING: Negative pressures at 57:38:36 hrs.
   
  WARNING: Negative pressures at 57:41:46 hrs.
   
  WARNING: Negative pressures at 57:47:28 hrs.
   
  WARNING: Negative pressures at 57:53:45 hrs.
   
  WARNING: Negative pressures at 57:59:27 hrs.
   
  WARNING: Negative pressures at 58:00:00 hrs.
   
  WARNING: Negative pressures at 58:05:46 hrs.
   
  WARNING: Negative pressures at 58:06:46 hrs.
   
  WARNING: Negative pressures at 58:12:06 hrs.
   
  WARNING: Negative pressures at 58:17:45 hrs.
   
  WARNING: Negative pressures at 58:24:04 hrs.
   
  WARNING: Negative pressures at 58:29:43 hrs.
   
  WARNING: Negative pressures at 58:36:03 hrs.
   
  WARNING: Negative pressures at 58:41:42 hrs.
   
  WARNING: Negative pressures at 58:48:02 hrs.
   
  WARNING: Negative pressures at 58:53:41 hrs.
   
  WARNING: Negative pressures at 59:00:00 hrs.
   
  WARNING: Negative pressures at 59:00:01 hrs.
   
  WARNING: Negative pressures at 59:05:41 hrs.
   
  WARNING: Negative pressures at 59:12:00 hrs.
   
  WARNING: Negative pressures at 59:17:41 hrs.
   
  WARNING: Negative pressures at 59:24:00 hrs.
   
  WARNING: Negative pressures at 59:29:40 hrs.
   
  WARNING: Negative pressures at 59:36:00 hrs.
   
  WARNING: Negative pressures at 59:41:40 hrs.
   
  WARNING: Negative pressures at 59:47:59 hrs.
   
  WARNING: Negative pressures at 59:53:38 hrs.
   
  WARNING: Negative pressures at 59:59:57 hrs.
   
  WARNING: Negative pressures at 60:00:00 hrs.
   
  WARNING: Negative pressures at 60:05:41 hrs.
   
  WARNING: Negative pressures at 60:11:55 hrs.
   
  WARNING: Negative pressures at 60:17:39 hrs.
   
  WARNING: Negative pressures at 60:23:53 hrs.
   
  WARNING: Negative pressures at 60:29:37 hrs.
   
  WARNING: Negative pressures at 60:35:51 hrs.
   
  WARNING: Negative pressures at 60:41:35 hrs.
   
  WARNING: Negative pressures at 60:47:49 hrs.
   
  WARNING: Negative pressures at 60:53:33 hrs.
   
  WARNING: Negative pressures at 60:59:48 hrs.
   
  WARNING: Negative pressures at 61:00:00 hrs.
   
  WARNING: Negative pressures at 61:05:34 hrs.
   
  WARNING: Negative pressures at 61:07:33 hrs.
   
  WARNING: Negative pressures at 61:11:55 hrs.
   
  WARNING: Negative pressures at 61:17:41 hrs.
   
  WARNING: Negative pressures at 61:22:32 hrs.
   
  WARNING: Negative pressures at 61:23:59 hrs.
   
  WARNING: Negative pressures at 61:29:45 hrs.
   
  WARNING: Negative pressures at 61:35:51 hrs.
   
  WARNING: Negative pressures at 61:41:37 hrs.
   
  WARNING: Negative pressures at 61:47:43 hrs.
   
  WARNING: Negative pressures at 61:53:28 hrs.
   
  WARNING: Negative pressures at 61:59:34 hrs.
   
  WARNING: Negative pressures at 62:00:00 hrs.
   
  WARNING: Negative pressures at 62:05:25 hrs.
   
  WARNING: Negative pressures at 62:11:24 hrs.
   
  WARNING: Negative pressures at 62:17:15 hrs.
   
  WARNING: Negative pressures at 62:23:14 hrs.
   
  WARNING: Negative pressures at 62:29:06 hrs.
   
  WARNING: Negative pressures at 62:35:05 hrs.
   
  WARNING: Negative pressures at 62:40:56 hrs.
   
  WARNING: Negative pressures at 62:46:55 hrs.
   
  WARNING: Negative pressures at 62:52:46 hrs.
   
  WARNING: Negative pressures at 62:58:45 hrs.
   
  WARNING: Negative pressures at 63:00:00 hrs.
   
  WARNING: Negative pressures at 63:04:37 hrs.
   
  WARNING: Negative pressures at 63:10:34 hrs.
   
  WARNING: Negative pressures at 63:16:27 hrs.
   
  WARNING: Negative pressures at 63:22:24 hrs.
   
  WARNING: Negative pressures at 63:28:16 hrs.
   
  WARNING: Negative pressures at 63:34:13 hrs.
   
  WARNING: Negative pressures at 63:40:06 hrs.
   
  WARNING: Negative pressures at 63:46:04 hrs.
   
  WARNING: Negative pressures at 63:51:57 hrs.
   
  WARNING: Negative pressures at 63:57:54 hrs.
   
  WARNING: Negative pressures at 64:00:00 hrs.
   
  WARNING: Negative pressures at 64:03:47 hrs.
   
  WARNING: Negative pressures at 64:09:44 hrs.
   
  WARNING: Negative pressures at 64:15:37 hrs.
   
  WARNING: Negative pressures at 64:21:34 hrs.
   
  WARNING: Negative pressures at 64:27:27 hrs.
   
  WARNING: Negative pressures at 64:33:24 hrs.
   
  WARNING: Negative pressures at 64:39:17 hrs.
   
  WARNING: Negative pressures at 64:45:14 hrs.
   
  WARNING: Negative pressures at 64:51:07 hrs.
   
  WARNING: Negative pressures at 64:57:04 hrs.
   
  WARNING: Negative pressures at 65:00:00 hrs.
   
  WARNING: Negative pressures at 65:03:00 hrs.
   
  WARNING: Negative pressures at 65:08:50 hrs.
   
  WARNING: Negative pressures at 65:14:48 hrs.
   
  WARNING: Negative pressures at 65:20:39 hrs.
   
  WARNING: Negative pressures at 65:26:38 hrs.
   
  WARNING: Negative pressures at 65:32:29 hrs.
   
  WARNING: Negative pressures at 65:38:28 hrs.
   
  WARNING: Negative pressures at 65:44:19 hrs.
   
  WARNING: Negative pressures at 65:50:18 hrs.
   
  WARNING: Negative pressures at 65:56:09 hrs.
   
  WARNING: Negative pressures at 66:00:00 hrs.
   
  WARNING: Negative pressures at 66:02:09 hrs.
   
  WARNING: Negative pressures at 66:07:55 hrs.
   
  WARNING: Negative pressures at 66:13:57 hrs.
   
  WARNING: Negative pressures at 66:19:44 hrs.
   
  WARNING: Negative pressures at 66:25:47 hrs.
   
  WARNING: Negative pressures at 66:31:34 hrs.
   
  WARNING: Negative pressures at 66:37:37 hrs.
   
  WARNING: Negative pressures at 66:43:24 hrs.
   
  WARNING: Negative pressures at 66:49:27 hrs.
   
  WARNING: Negative pressures at 66:55:14 hrs.
   
  WARNING: Negative pressures at 67:00:00 hrs.
   
  WARNING: Negative pressures at 67:01:19 hrs.
   
  WARNING: Negative pressures at 67:06:56 hrs.
   
  WARNING: Negative pressures at 67:13:08 hrs.
   
  WARNING: Negative pressures at 67:18:44 hrs.
   
  WARNING: Negative pressures at 67:24:57 hrs.
   
  WARNING: Negative pressures at 67:30:32 hrs.
   
  WARNING: Negative pressures at 67:36:46 hrs.
   
  WARNING: Negative pressures at 67:42:21 hrs.
   
  WARNING: Negative pressures at 67:48:36 hrs.
   
  WARNING: Negative pressures at 67:54:10 hrs.
   
  WARNING: Negative pressures at 68:00:00 hrs.
   
  WARNING: Negative pressures at 68:00:28 hrs.
   
  WARNING: Negative pressures at 68:05:41 hrs.
   
  WARNING: Negative pressures at 68:12:23 hrs.
   
  WARNING: Negative pressures at 68:17:36 hrs.
   
  WARNING: Negative pressures at 68:24:19 hrs.
   
  WARNING: Negative pressures at 68:29:30 hrs.
   
  WARNING: Negative pressures at 68:36:14 hrs.
   
  WARNING: Negative pressures at 68:38:36 hrs.
   
  WARNING: Negative pressures at 68:41:23 hrs.
   
  WARNING: Negative pressures at 68:41:30 hrs.
   
  WARNING: Negative pressures at 68:48:08 hrs.
   
  WARNING: Negative pressures at 68:48:25 hrs.
   
  WARNING: Negative pressures at 68:53:02 hrs.
   
  WARNING: Negative pressures at 68:53:15 hrs.
   
  WARNING: Negative pressures at 68:59:48 hrs.
   
  WARNING: Negative pressures at 69:00:00 hrs.
   
  WARNING: Negative pressures at 69:00:05 hrs.
   
  WARNING: Negative pressures at 69:04:25 hrs.
   
  WARNING: Negative pressures at 69:11:46 hrs.
   
  WARNING: Negative pressures at 69:16:20 hrs.
   
  WARNING: Negative pressures at 69:23:43 hrs.
   
  WARNING: Negative pressures at 69:28:17 hrs.
   
  WARNING: Negative pressures at 69:35:39 hrs.
   
  WARNING: Negative pressures at 69:40:13 hrs.
   
  WARNING: Negative pressures at 69:47:35 hrs.
   
  WARNING: Negative pressures at 69:52:09 hrs.
   
  WARNING: Negative pressures at 69:59:31 hrs.
   
  WARNING: Negative pressures at 70:00:00 hrs.
   
  WARNING: Negative pressures at 70:03:57 hrs.
   
  WARNING: Negative pressures at 70:11:47 hrs.
   
  WARNING: Negative pressures at 70:16:10 hrs.
   
  WARNING: Negative pressures at 70:24:01 hrs.
   
  WARNING: Negative pressures at 70:28:24 hrs.
   
  WARNING: Negative pressures at 70:36:15 hrs.
   
  WARNING: Negative pressures at 70:40:38 hrs.
   
  WARNING: Negative pressures at 70:48:29 hrs.
   
  WARNING: Negative pressures at 70:52:52 hrs.
   
  WARNING: Negative pressures at 71:00:00 hrs.
   
  WARNING: Negative pressures at 71:00:45 hrs.
   
  WARNING: Negative pressures at 71:05:02 hrs.
   
  WARNING: Negative pressures at 71:13:11 hrs.
   
  WARNING: Negative pressures at 71:17:27 hrs.
   
  WARNING: Negative pressures at 71:25:35 hrs.
   
  WARNING: Negative pressures at 71:29:52 hrs.
   
  WARNING: Negative pressures at 71:38:02 hrs.
   
  WARNING: Negative pressures at 71:42:19 hrs.
   
  WARNING: Negative pressures at 71:50:28 hrs.
   
  WARNING: Negative pressures at 71:54:45 hrs.
   
  WARNING: Negative pressures at 71:59:30 hrs.
   
  WARNING: Negative pressures at 72:00:00 hrs.
   
  WARNING: Negative pressures at 72:03:00 hrs.
   
  WARNING: Negative pressures at 72:07:16 hrs.
   
  WARNING: Negative pressures at 72:15:36 hrs.
   
  WARNING: Negative pressures at 72:19:52 hrs.
   
  WARNING: Negative pressures at 72:28:12 hrs.
   
  WARNING: Negative pressures at 72:32:27 hrs.
   
  WARNING: Negative pressures at 72:40:45 hrs.
   
  WARNING: Negative pressures at 72:45:00 hrs.
   
  WARNING: Negative pressures at 72:53:18 hrs.
   
  WARNING: Negative pressures at 72:57:33 hrs.
   
  WARNING: Negative pressures at 73:00:00 hrs.
   
  WARNING: Negative pressures at 73:05:50 hrs.
   
  WARNING: Negative pressures at 73:10:06 hrs.
   
  WARNING: Negative pressures at 73:18:21 hrs.
   
  WARNING: Negative pressures at 73:22:37 hrs.
   
  WARNING: Negative pressures at 73:30:52 hrs.
   
  WARNING: Negative pressures at 73:35:08 hrs.
   
  WARNING: Negative pressures at 73:43:23 hrs.
   
  WARNING: Negative pressures at 73:47:39 hrs.
   
  WARNING: Negative pressures at 73:55:54 hrs.
   
  WARNING: Negative pressures at 74:00:00 hrs.
   
  WARNING: Negative pressures at 74:00:11 hrs.
   
  WARNING: Negative pressures at 74:08:20 hrs.
   
  WARNING: Negative pressures at 74:12:38 hrs.
   
  WARNING: Negative pressures at 74:20:06 hrs.
   
  WARNING: Negative pressures at 74:20:49 hrs.
   
  WARNING: Negative pressures at 74:25:04 hrs.
   
  WARNING: Negative pressures at 74:33:20 hrs.
   
  WARNING: Negative pressures at 74:37:34 hrs.
   
  WARNING: Negative pressures at 74:45:49 hrs.
   
  WARNING: Negative pressures at 74:50:03 hrs.
   
  WARNING: Negative pressures at 74:58:18 hrs.
   
  WARNING: Negative pressures at 75:00:00 hrs.
   
  WARNING: Negative pressures at 75:02:39 hrs.
   
  WARNING: Negative pressures at 75:10:54 hrs.
   
  WARNING: Negative pressures at 75:15:09 hrs.
   
  WARNING: Negative pressures at 75:23:23 hrs.
   
  WARNING: Negative pressures at 75:27:38 hrs.
   
  WARNING: Negative pressures at 75:35:53 hrs.
   
  WARNING: Negative pressures at 75:40:08 hrs.
   
  WARNING: Negative pressures at 75:48:23 hrs.
   
  WARNING: Negative pressures at 75:52:38 hrs.
   
  WARNING: Negative pressures at 76:00:00 hrs.
   
  WARNING: Negative pressures at 76:00:53 hrs.
   
  WARNING: Negative pressures at 76:05:10 hrs.
   
  WARNING: Negative pressures at 76:13:19 hrs.
   
  WARNING: Negative pressures at 76:17:36 hrs.
   
  WARNING: Negative pressures at 76:25:44 hrs.
   
  WARNING: Negative pressures at 76:30:01 hrs.
   
  WARNING: Negative pressures at 76:38:10 hrs.
   
  WARNING: Negative pressures at 76:42:27 hrs.
   
  WARNING: Negative pressures at 76:50:36 hrs.
   
  WARNING: Negative pressures at 76:54:53 hrs.
   
  WARNING: Negative pressures at 77:00:00 hrs.
   
  WARNING: Negative pressures at 77:03:07 hrs.
   
  WARNING: Negative pressures at 77:07:22 hrs.
   
  WARNING: Negative pressures at 77:15:41 hrs.
   
  WARNING: Negative pressures at 77:19:56 hrs.
   
  WARNING: Negative pressures at 77:28:15 hrs.
   
  WARNING: Negative pressures at 77:32:30 hrs.
   
  WARNING: Negative pressures at 77:40:49 hrs.
   
  WARNING: Negative pressures at 77:45:03 hrs.
   
  WARNING: Negative pressures at 77:53:20 hrs.
   
  WARNING: Negative pressures at 77:57:34 hrs.
   
  WARNING: Negative pressures at 78:00:00 hrs.
   
  WARNING: Negative pressures at 78:05:04 hrs.
   
  WARNING: Negative pressures at 78:10:03 hrs.
   
  WARNING: Negative pressures at 78:17:12 hrs.
   
  WARNING: Negative pressures at 78:22:11 hrs.
   
  WARNING: Negative pressures at 78:29:19 hrs.
   
  WARNING: Negative pressures at 78:34:18 hrs.
   
  WARNING: Negative pressures at 78:41:27 hrs.
   
  WARNING: Negative pressures at 78:46:26 hrs.
   
  WARNING: Negative pressures at 78:53:35 hrs.
   
  WARNING: Negative pressures at 78:58:34 hrs.
   
  WARNING: Negative pressures at 79:00:00 hrs.
   
  WARNING: Negative pressures at 79:05:18 hrs.
   
  WARNING: Negative pressures at 79:10:39 hrs.
   
  WARNING: Negative pressures at 79:17:15 hrs.
   
  WARNING: Negative pressures at 79:22:36 hrs.
   
  WARNING: Negative pressures at 79:29:13 hrs.
   
  WARNING: Negative pressures at 79:34:34 hrs.
   
  WARNING: Negative pressures at 79:41:11 hrs.
   
  WARNING: Negative pressures at 79:46:32 hrs.
   
  WARNING: Negative pressures at 79:53:08 hrs.
   
  WARNING: Negative pressures at 79:58:29 hrs.
   
  WARNING: Negative pressures at 80:00:00 hrs.
   
  WARNING: Negative pressures at 80:04:57 hrs.
   
  WARNING: Negative pressures at 80:10:29 hrs.
   
  WARNING: Negative pressures at 80:16:54 hrs.
   
  WARNING: Negative pressures at 80:22:26 hrs.
   
  WARNING: Negative pressures at 80:28:50 hrs.
   
  WARNING: Negative pressures at 80:34:21 hrs.
   
  WARNING: Negative pressures at 80:40:45 hrs.
   
  WARNING: Negative pressures at 80:46:17 hrs.
   
  WARNING: Negative pressures at 80:52:41 hrs.
   
  WARNING: Negative pressures at 80:58:13 hrs.
   
  WARNING: Negative pressures at 81:00:00 hrs.
   
  WARNING: Negative pressures at 81:04:33 hrs.
   
  WARNING: Negative pressures at 81:10:11 hrs.
   
  WARNING: Negative pressures at 81:12:57 hrs.
   
  WARNING: Negative pressures at 81:16:28 hrs.
   
  WARNING: Negative pressures at 81:22:06 hrs.
   
  WARNING: Negative pressures at 81:25:00 hrs.
   
  WARNING: Negative pressures at 81:28:23 hrs.
   
  WARNING: Negative pressures at 81:34:01 hrs.
   
  WARNING: Negative pressures at 81:37:40 hrs.
   
  WARNING: Negative pressures at 81:40:18 hrs.
   
  WARNING: Negative pressures at 81:45:57 hrs.
   
  WARNING: Negative pressures at 81:50:32 hrs.
   
  WARNING: Negative pressures at 81:52:14 hrs.
   
  WARNING: Negative pressures at 81:54:07 hrs.
   
  WARNING: Negative pressures at 81:58:32 hrs.
   
  WARNING: Negative pressures at 82:00:00 hrs.
   
  WARNING: Negative pressures at 82:01:50 hrs.
   
  WARNING: Negative pressures at 82:04:12 hrs.
   
  WARNING: Negative pressures at 82:10:28 hrs.
   
  WARNING: Negative pressures at 82:16:08 hrs.
   
  WARNING: Negative pressures at 82:22:23 hrs.
   
  WARNING: Negative pressures at 82:28:02 hrs.
   
  WARNING: Negative pressures at 82:34:18 hrs.
   
  WARNING: Negative pressures at 82:39:58 hrs.
   
  WARNING: Negative pressures at 82:46:14 hrs.
   
  WARNING: Negative pressures at 82:51:53 hrs.
   
  WARNING: Negative pressures at 82:58:09 hrs.
   
  WARNING: Negative pressures at 83:00:00 hrs.
   
  WARNING: Negative pressures at 83:03:49 hrs.
   
  WARNING: Negative pressures at 83:10:03 hrs.
   
  WARNING: Negative pressures at 83:15:43 hrs.
   
  WARNING: Negative pressures at 83:21:57 hrs.
   
  WARNING: Negative pressures at 83:27:37 hrs.
   
  WARNING: Negative pressures at 83:33:52 hrs.
   
  WARNING: Negative pressures at 83:39:32 hrs.
   
  WARNING: Negative pressures at 83:45:47 hrs.
   
  WARNING: Negative pressures at 83:51:27 hrs.
   
  WARNING: Negative pressures at 83:57:42 hrs.
   
  WARNING: Negative pressures at 84:00:00 hrs.
   
  WARNING: Negative pressures at 84:03:25 hrs.
   
  WARNING: Negative pressures at 84:09:32 hrs.
   
  WARNING: Negative pressures at 84:15:16 hrs.
   
  WARNING: Negative pressures at 84:21:23 hrs.
   
  WARNING: Negative pressures at 84:27:08 hrs.
   
  WARNING: Negative pressures at 84:33:16 hrs.
   
  WARNING: Negative pressures at 84:39:01 hrs.
   
  WARNING: Negative pressures at 84:45:09 hrs.
   
  WARNING: Negative pressures at 84:50:53 hrs.
   
  WARNING: Negative pressures at 84:57:00 hrs.
   
  WARNING: Negative pressures at 84:58:56 hrs.
   
  WARNING: Negative pressures at 85:00:00 hrs.
   
  WARNING: Negative pressures at 85:02:45 hrs.
   
  WARNING: Negative pressures at 85:08:54 hrs.
   
  WARNING: Negative pressures at 85:14:40 hrs.
   
  WARNING: Negative pressures at 85:20:50 hrs.
   
  WARNING: Negative pressures at 85:26:36 hrs.
   
  WARNING: Negative pressures at 85:32:46 hrs.
   
  WARNING: Negative pressures at 85:38:32 hrs.
   
  WARNING: Negative pressures at 85:44:42 hrs.
   
  WARNING: Negative pressures at 85:50:27 hrs.
   
  WARNING: Negative pressures at 85:56:37 hrs.
   
  WARNING: Negative pressures at 86:00:00 hrs.
   
  WARNING: Negative pressures at 86:02:25 hrs.
   
  WARNING: Negative pressures at 86:08:28 hrs.
   
  WARNING: Negative pressures at 86:14:20 hrs.
   
  WARNING: Negative pressures at 86:20:23 hrs.
   
  WARNING: Negative pressures at 86:26:14 hrs.
   
  WARNING: Negative pressures at 86:32:17 hrs.
   
  WARNING: Negative pressures at 86:38:08 hrs.
   
  WARNING: Negative pressures at 86:44:11 hrs.
   
  WARNING: Negative pressures at 86:50:02 hrs.
   
  WARNING: Negative pressures at 86:56:06 hrs.
   
  WARNING: Negative pressures at 87:00:00 hrs.
   
  WARNING: Negative pressures at 87:01:59 hrs.
   
  WARNING: Negative pressures at 87:08:01 hrs.
   
  WARNING: Negative pressures at 87:13:54 hrs.
   
  WARNING: Negative pressures at 87:19:55 hrs.
   
  WARNING: Negative pressures at 87:25:48 hrs.
   
  WARNING: Negative pressures at 87:31:50 hrs.
   
  WARNING: Negative pressures at 87:37:43 hrs.
   
  WARNING: Negative pressures at 87:43:45 hrs.
   
  WARNING: Negative pressures at 87:49:38 hrs.
   
  WARNING: Negative pressures at 87:55:40 hrs.
   
  WARNING: Negative pressures at 88:00:00 hrs.
   
  WARNING: Negative pressures at 88:01:33 hrs.
   
  WARNING: Negative pressures at 88:07:34 hrs.
   
  WARNING: Negative pressures at 88:13:27 hrs.
   
  WARNING: Negative pressures at 88:19:28 hrs.
   
  WARNING: Negative pressures at 88:19:35 hrs.
   
  WARNING: Negative pressures at 88:25:21 hrs.
   
  WARNING: Negative pressures at 88:31:18 hrs.
   
  WARNING: Negative pressures at 88:37:11 hrs.
   
  WARNING: Negative pressures at 88:43:08 hrs.
   
  WARNING: Negative pressures at 88:49:01 hrs.
   
  WARNING: Negative pressures at 88:54:58 hrs.
   
  WARNING: Negative pressures at 89:00:00 hrs.
   
  WARNING: Negative pressures at 89:00:52 hrs.
   
  WARNING: Negative pressures at 89:06:43 hrs.
   
  WARNING: Negative pressures at 89:12:42 hrs.
   
  WARNING: Negative pressures at 89:18:33 hrs.
   
  WARNING: Negative pressures at 89:24:32 hrs.
   
  WARNING: Negative pressures at 89:30:23 hrs.
   
  WARNING: Negative pressures at 89:36:22 hrs.
   
  WARNING: Negative pressures at 89:42:13 hrs.
   
  WARNING: Negative pressures at 89:48:12 hrs.
   
  WARNING: Negative pressures at 89:54:03 hrs.
   
  WARNING: Negative pressures at 90:00:00 hrs.
   
  WARNING: Negative pressures at 90:00:01 hrs.
   
  WARNING: Negative pressures at 90:05:47 hrs.
   
  WARNING: Negative pressures at 90:11:49 hrs.
   
  WARNING: Negative pressures at 90:17:35 hrs.
   
  WARNING: Negative pressures at 90:23:37 hrs.
   
  WARNING: Negative pressures at 90:29:23 hrs.
   
  WARNING: Negative pressures at 90:35:25 hrs.
   
  WARNING: Negative pressures at 90:41:12 hrs.
   
  WARNING: Negative pressures at 90:47:15 hrs.
   
  WARNING: Negative pressures at 90:53:02 hrs.
   
  WARNING: Negative pressures at 90:59:05 hrs.
   
  WARNING: Negative pressures at 91:00:00 hrs.
   
  WARNING: Negative pressures at 91:04:50 hrs.
   
  WARNING: Negative pressures at 91:11:03 hrs.
   
  WARNING: Negative pressures at 91:16:40 hrs.
   
  WARNING: Negative pressures at 91:22:54 hrs.
   
  WARNING: Negative pressures at 91:28:30 hrs.
   
  WARNING: Negative pressures at 91:34:44 hrs.
   
  WARNING: Negative pressures at 91:40:19 hrs.
   
  WARNING: Negative pressures at 91:46:34 hrs.
   
  WARNING: Negative pressures at 91:52:08 hrs.
   
  WARNING: Negative pressures at 91:58:24 hrs.
   
  WARNING: Negative pressures at 92:00:00 hrs.
   
  WARNING: Negative pressures at 92:03:51 hrs.
   
  WARNING: Negative pressures at 92:10:33 hrs.
   
  WARNING: Negative pressures at 92:15:46 hrs.
   
  WARNING: Negative pressures at 92:22:30 hrs.
   
  WARNING: Negative pressures at 92:27:42 hrs.
   
  WARNING: Negative pressures at 92:34:26 hrs.
   
  WARNING: Negative pressures at 92:38:08 hrs.
   
  WARNING: Negative pressures at 92:39:39 hrs.
   
  WARNING: Negative pressures at 92:39:43 hrs.
   
  WARNING: Negative pressures at 92:46:25 hrs.
   
  WARNING: Negative pressures at 92:46:43 hrs.
   
  WARNING: Negative pressures at 92:51:19 hrs.
   
  WARNING: Negative pressures at 92:51:31 hrs.
   
  WARNING: Negative pressures at 92:58:04 hrs.
   
  WARNING: Negative pressures at 92:58:21 hrs.
   
  WARNING: Negative pressures at 93:00:00 hrs.
   
  WARNING: Negative pressures at 93:00:04 hrs.
   
  WARNING: Negative pressures at 93:02:54 hrs.
   
  WARNING: Negative pressures at 93:10:16 hrs.
   
  WARNING: Negative pressures at 93:14:50 hrs.
   
  WARNING: Negative pressures at 93:22:12 hrs.
   
  WARNING: Negative pressures at 93:26:46 hrs.
   
  WARNING: Negative pressures at 93:34:09 hrs.
   
  WARNING: Negative pressures at 93:38:43 hrs.
   
  WARNING: Negative pressures at 93:46:05 hrs.
   
  WARNING: Negative pressures at 93:50:39 hrs.
   
  WARNING: Negative pressures at 93:58:01 hrs.
   
  WARNING: Negative pressures at 94:00:00 hrs.
   
  WARNING: Negative pressures at 94:02:35 hrs.
   
  WARNING: Negative pressures at 94:10:25 hrs.
   
  WARNING: Negative pressures at 94:14:48 hrs.
   
  WARNING: Negative pressures at 94:22:39 hrs.
   
  WARNING: Negative pressures at 94:27:02 hrs.
   
  WARNING: Negative pressures at 94:34:53 hrs.
   
  WARNING: Negative pressures at 94:39:16 hrs.
   
  WARNING: Negative pressures at 94:47:07 hrs.
   
  WARNING: Negative pressures at 94:51:30 hrs.
   
  WARNING: Negative pressures at 94:59:21 hrs.
   
  WARNING: Negative pressures at 95:00:00 hrs.
   
  WARNING: Negative pressures at 95:03:42 hrs.
   
  WARNING: Negative pressures at 95:11:51 hrs.
   
  WARNING: Negative pressures at 95:16:08 hrs.
   
  WARNING: Negative pressures at 95:24:18 hrs.
   
  WARNING: Negative pressures at 95:28:35 hrs.
   
  WARNING: Negative pressures at 95:36:44 hrs.
   
  WARNING: Negative pressures at 95:41:01 hrs.
   
  WARNING: Negative pressures at 95:49:11 hrs.
   
  WARNING: Negative pressures at 95:53:28 hrs.
   
  WARNING: Negative pressures at 96:00:00 hrs.
   
  WARNING: Negative pressures at 96:01:42 hrs.
   
  WARNING: Negative pressures at 96:05:54 hrs.
   
  WARNING: Negative pressures at 96:14:21 hrs.
   
  WARNING: Negative pressures at 96:18:33 hrs.
   
  WARNING: Negative pressures at 96:26:59 hrs.
   
  WARNING: Negative pressures at 96:31:11 hrs.
   
  WARNING: Negative pressures at 96:39:38 hrs.
   
  WARNING: Negative pressures at 96:43:50 hrs.
   
  WARNING: Negative pressures at 96:52:17 hrs.
   
  WARNING: Negative pressures at 96:56:29 hrs.
   
  WARNING: Negative pressures at 97:00:00 hrs.
   
  WARNING: Negative pressures at 97:04:55 hrs.
   
  WARNING: Negative pressures at 97:09:08 hrs.
   
  WARNING: Negative pressures at 97:17:31 hrs.
   
  WARNING: Negative pressures at 97:21:44 hrs.
   
  WARNING: Negative pressures at 97:30:07 hrs.
   
  WARNING: Negative pressures at 97:34:20 hrs.
   
  WARNING: Negative pressures at 97:42:43 hrs.
   
  WARNING: Negative pressures at 97:46:56 hrs.
   
  WARNING: Negative pressures at 97:55:19 hrs.
   
  WARNING: Negative pressures at 97:59:32 hrs.
   
  WARNING: Negative pressures at 98:00:00 hrs.
   
  WARNING: Negative pressures at 98:07:49 hrs.
   
  WARNING: Negative pressures at 98:12:04 hrs.
   
  WARNING: Negative pressures at 98:20:21 hrs.
   
  WARNING: Negative pressures at 98:24:36 hrs.
   
  WARNING: Negative pressures at 98:32:53 hrs.
   
  WARNING: Negative pressures at 98:37:08 hrs.
   
  WARNING: Negative pressures at 98:45:25 hrs.
   
  WARNING: Negative pressures at 98:49:40 hrs.
   
  WARNING: Negative pressures at 98:57:57 hrs.
   
  WARNING: Negative pressures at 99:00:00 hrs.
   
  WARNING: Negative pressures at 99:02:18 hrs.
   
  WARNING: Negative pressures at 99:10:32 hrs.
   
  WARNING: Negative pressures at 99:14:47 hrs.
   
  WARNING: Negative pressures at 99:23:02 hrs.
   
  WARNING: Negative pressures at 99:27:17 hrs.
   
  WARNING: Negative pressures at 99:35:32 hrs.
   
  WARNING: Negative pressures at 99:39:47 hrs.
   
  WARNING: Negative pressures at 99:48:02 hrs.
   
  WARNING: Negative pressures at 99:52:17 hrs.
   
  WARNING: Negative pressures at 100:00:00 hrs.
   
  WARNING: Negative pressures at 100:00:32 hrs.
   
  WARNING: Negative pressures at 100:04:49 hrs.
   
  WARNING: Negative pressures at 100:12:58 hrs.
   
  WARNING: Negative pressures at 100:17:15 hrs.
   
  WARNING: Negative pressures at 100:25:24 hrs.
   
  WARNING: Negative pressures at 100:29:41 hrs.
   
  WARNING: Negative pressures at 100:37:50 hrs.
   
  WARNING: Negative pressures at 100:42:07 hrs.
   
  WARNING: Negative pressures at 100:50:16 hrs.
   
  WARNING: Negative pressures at 100:54:33 hrs.
   
  WARNING: Negative pressures at 101:00:00 hrs.
   
  WARNING: Negative pressures at 101:02:46 hrs.
   
  WARNING: Negative pressures at 101:07:00 hrs.
   
  WARNING: Negative pressures at 101:15:17 hrs.
   
  WARNING: Negative pressures at 101:19:31 hrs.
   
  WARNING: Negative pressures at 101:27:49 hrs.
   
  WARNING: Negative pressures at 101:32:04 hrs.
   
  WARNING: Negative pressures at 101:40:23 hrs.
   
  WARNING: Negative pressures at 101:44:37 hrs.
   
  WARNING: Negative pressures at 101:52:54 hrs.
   
  WARNING: Negative pressures at 101:57:08 hrs.
   
  WARNING: Negative pressures at 102:00:00 hrs.
   
  WARNING: Negative pressures at 102:04:42 hrs.
   
  WARNING: Negative pressures at 102:08:48 hrs.
   
  WARNING: Negative pressures at 102:09:48 hrs.
   
  WARNING: Negative pressures at 102:16:57 hrs.
   
  WARNING: Negative pressures at 102:21:59 hrs.
   
  WARNING: Negative pressures at 102:29:08 hrs.
   
  WARNING: Negative pressures at 102:34:10 hrs.
   
  WARNING: Negative pressures at 102:41:19 hrs.
   
  WARNING: Negative pressures at 102:46:22 hrs.
   
  WARNING: Negative pressures at 102:53:32 hrs.
   
  WARNING: Negative pressures at 102:58:34 hrs.
   
  WARNING: Negative pressures at 103:00:00 hrs.
   
  WARNING: Negative pressures at 103:05:17 hrs.
   
  WARNING: Negative pressures at 103:10:41 hrs.
   
  WARNING: Negative pressures at 103:17:17 hrs.
   
  WARNING: Negative pressures at 103:22:42 hrs.
   
  WARNING: Negative pressures at 103:29:19 hrs.
   
  WARNING: Negative pressures at 103:34:44 hrs.
   
  WARNING: Negative pressures at 103:41:21 hrs.
   
  WARNING: Negative pressures at 103:46:46 hrs.
   
  WARNING: Negative pressures at 103:53:23 hrs.
   
  WARNING: Negative pressures at 103:58:48 hrs.
   
  WARNING: Negative pressures at 104:00:00 hrs.
   
  WARNING: Negative pressures at 104:05:15 hrs.
   
  WARNING: Negative pressures at 104:10:50 hrs.
   
  WARNING: Negative pressures at 104:17:14 hrs.
   
  WARNING: Negative pressures at 104:22:49 hrs.
   
  WARNING: Negative pressures at 104:29:13 hrs.
   
  WARNING: Negative pressures at 104:34:48 hrs.
   
  WARNING: Negative pressures at 104:41:12 hrs.
   
  WARNING: Negative pressures at 104:46:47 hrs.
   
  WARNING: Negative pressures at 104:53:11 hrs.
   
  WARNING: Negative pressures at 104:58:46 hrs.
   
  WARNING: Negative pressures at 105:00:00 hrs.
   
  WARNING: Negative pressures at 105:05:04 hrs.
   
  WARNING: Negative pressures at 105:10:45 hrs.
   
  WARNING: Negative pressures at 105:17:01 hrs.
   
  WARNING: Negative pressures at 105:22:42 hrs.
   
  WARNING: Negative pressures at 105:26:00 hrs.
   
  WARNING: Negative pressures at 105:28:59 hrs.
   
  WARNING: Negative pressures at 105:34:37 hrs.
   
  WARNING: Negative pressures at 105:40:53 hrs.
   
  WARNING: Negative pressures at 105:46:32 hrs.
   
  WARNING: Negative pressures at 105:52:49 hrs.
   
  WARNING: Negative pressures at 105:58:28 hrs.
   
  WARNING: Negative pressures at 106:00:00 hrs.
   
  WARNING: Negative pressures at 106:04:47 hrs.
   
  WARNING: Negative pressures at 106:06:32 hrs.
   
  WARNING: Negative pressures at 106:11:03 hrs.
   
  WARNING: Negative pressures at 106:16:43 hrs.
   
  WARNING: Negative pressures at 106:22:59 hrs.
   
  WARNING: Negative pressures at 106:28:38 hrs.
   
  WARNING: Negative pressures at 106:34:54 hrs.
   
  WARNING: Negative pressures at 106:40:33 hrs.
   
  WARNING: Negative pressures at 106:46:49 hrs.
   
  WARNING: Negative pressures at 106:52:28 hrs.
   
  WARNING: Negative pressures at 106:58:45 hrs.
   
  WARNING: Negative pressures at 107:00:00 hrs.
   
  WARNING: Negative pressures at 107:04:25 hrs.
   
  WARNING: Negative pressures at 107:10:40 hrs.
   
  WARNING: Negative pressures at 107:16:20 hrs.
   
  WARNING: Negative pressures at 107:22:35 hrs.
   
  WARNING: Negative pressures at 107:28:15 hrs.
   
  WARNING: Negative pressures at 107:34:30 hrs.
   
  WARNING: Negative pressures at 107:40:10 hrs.
   
  WARNING: Negative pressures at 107:46:26 hrs.
   
  WARNING: Negative pressures at 107:52:06 hrs.
   
  WARNING: Negative pressures at 107:58:22 hrs.
   
  WARNING: Negative pressures at 108:00:00 hrs.
   
  WARNING: Negative pressures at 108:04:05 hrs.
   
  WARNING: Negative pressures at 108:10:15 hrs.
   
  WARNING: Negative pressures at 108:11:18 hrs.
   
  WARNING: Negative pressures at 108:16:00 hrs.
   
  WARNING: Negative pressures at 108:22:08 hrs.
   
  WARNING: Negative pressures at 108:27:52 hrs.
   
  WARNING: Negative pressures at 108:33:59 hrs.
   
  WARNING: Negative pressures at 108:39:43 hrs.
   
  WARNING: Negative pressures at 108:45:51 hrs.
   
  WARNING: Negative pressures at 108:51:35 hrs.
   
  WARNING: Negative pressures at 108:57:43 hrs.
   
  WARNING: Negative pressures at 109:00:00 hrs.
   
  WARNING: Negative pressures at 109:03:28 hrs.
   
  WARNING: Negative pressures at 109:09:33 hrs.
   
  WARNING: Negative pressures at 109:15:19 hrs.
   
  WARNING: Negative pressures at 109:21:24 hrs.
   
  WARNING: Negative pressures at 109:27:09 hrs.
   
  WARNING: Negative pressures at 109:33:14 hrs.
   
  WARNING: Negative pressures at 109:39:00 hrs.
   
  WARNING: Negative pressures at 109:45:06 hrs.
   
  WARNING: Negative pressures at 109:50:52 hrs.
   
  WARNING: Negative pressures at 109:56:58 hrs.
   
  WARNING: Negative pressures at 110:00:00 hrs.
   
  WARNING: Negative pressures at 110:02:47 hrs.
   
  WARNING: Negative pressures at 110:08:46 hrs.
   
  WARNING: Negative pressures at 110:14:38 hrs.
   
  WARNING: Negative pressures at 110:20:37 hrs.
   
  WARNING: Negative pressures at 110:26:28 hrs.
   
  WARNING: Negative pressures at 110:32:26 hrs.
   
  WARNING: Negative pressures at 110:38:17 hrs.
   
  WARNING: Negative pressures at 110:44:16 hrs.
   
  WARNING: Negative pressures at 110:50:07 hrs.
   
  WARNING: Negative pressures at 110:56:06 hrs.
   
  WARNING: Negative pressures at 111:00:00 hrs.
   
  WARNING: Negative pressures at 111:01:58 hrs.
   
  WARNING: Negative pressures at 111:07:55 hrs.
   
  WARNING: Negative pressures at 111:13:48 hrs.
   
  WARNING: Negative pressures at 111:19:45 hrs.
   
  WARNING: Negative pressures at 111:25:38 hrs.
   
  WARNING: Negative pressures at 111:31:35 hrs.
   
  WARNING: Negative pressures at 111:37:28 hrs.
   
  WARNING: Negative pressures at 111:43:25 hrs.
   
  WARNING: Negative pressures at 111:49:18 hrs.
   
  WARNING: Negative pressures at 111:55:16 hrs.
   
  WARNING: Negative pressures at 112:00:00 hrs.
   
  WARNING: Negative pressures at 112:01:10 hrs.
   
  WARNING: Negative pressures at 112:07:07 hrs.
   
  WARNING: Negative pressures at 112:13:00 hrs.
   
  WARNING: Negative pressures at 112:18:56 hrs.
   
  WARNING: Negative pressures at 112:24:49 hrs.
   
  WARNING: Negative pressures at 112:30:46 hrs.
   
  WARNING: Negative pressures at 112:36:39 hrs.
   
  WARNING: Negative pressures at 112:42:36 hrs.
   
  WARNING: Negative pressures at 112:48:29 hrs.
   
  WARNING: Negative pressures at 112:54:25 hrs.
   
  WARNING: Negative pressures at 113:00:00 hrs.
   
  WARNING: Negative pressures at 113:00:18 hrs.
   
  WARNING: Negative pressures at 113:06:09 hrs.
   
  WARNING: Negative pressures at 113:12:08 hrs.
   
  WARNING: Negative pressures at 113:17:58 hrs.
   
  WARNING: Negative pressures at 113:23:56 hrs.
   
  WARNING: Negative pressures at 113:29:46 hrs.
   
  WARNING: Negative pressures at 113:35:45 hrs.
   
  WARNING: Negative pressures at 113:41:36 hrs.
   
  WARNING: Negative pressures at 113:47:35 hrs.
   
  WARNING: Negative pressures at 113:53:26 hrs.
   
  WARNING: Negative pressures at 113:59:25 hrs.
   
  WARNING: Negative pressures at 114:00:00 hrs.
   
  WARNING: Negative pressures at 114:05:16 hrs.
   
  WARNING: Negative pressures at 114:11:18 hrs.
   
  WARNING: Negative pressures at 114:17:04 hrs.
   
  WARNING: Negative pressures at 114:17:18 hrs.
   
  WARNING: Negative pressures at 114:23:07 hrs.
   
  WARNING: Negative pressures at 114:28:58 hrs.
   
  WARNING: Negative pressures at 114:35:00 hrs.
   
  WARNING: Negative pressures at 114:40:51 hrs.
   
  WARNING: Negative pressures at 114:46:54 hrs.
   
  WARNING: Negative pressures at 114:52:45 hrs.
   
  WARNING: Negative pressures at 114:58:47 hrs.
   
  WARNING: Negative pressures at 115:00:00 hrs.
   
  WARNING: Negative pressures at 115:04:37 hrs.
   
  WARNING: Negative pressures at 115:10:49 hrs.
   
  WARNING: Negative pressures at 115:16:30 hrs.
   
  WARNING: Negative pressures at 115:22:44 hrs.
   
  WARNING: Negative pressures at 115:28:24 hrs.
   
  WARNING: Negative pressures at 115:34:38 hrs.
   
  WARNING: Negative pressures at 115:40:17 hrs.
   
  WARNING: Negative pressures at 115:46:32 hrs.
   
  WARNING: Negative pressures at 115:52:10 hrs.
   
  WARNING: Negative pressures at 115:58:26 hrs.
   
  WARNING: Negative pressures at 116:00:00 hrs.
   
  WARNING: Negative pressures at 116:03:57 hrs.
   
  WARNING: Negative pressures at 116:10:39 hrs.
   
  WARNING: Negative pressures at 116:15:55 hrs.
   
  WARNING: Negative pressures at 116:22:38 hrs.
   
  WARNING: Negative pressures at 116:27:53 hrs.
   
  WARNING: Negative pressures at 116:34:36 hrs.
   
  WARNING: Negative pressures at 116:39:50 hrs.
   
  WARNING: Negative pressures at 116:40:32 hrs.
   
  WARNING: Negative pressures at 116:46:35 hrs.
   
  WARNING: Negative pressures at 116:46:58 hrs.
   
  WARNING: Negative pressures at 116:51:32 hrs.
   
  WARNING: Negative pressures at 116:51:49 hrs.
   
  WARNING: Negative pressures at 116:58:17 hrs.
   
  WARNING: Negative pressures at 116:58:41 hrs.
   
  WARNING: Negative pressures at 117:00:00 hrs.
   
  WARNING: Negative pressures at 117:00:05 hrs.
   
  WARNING: Negative pressures at 117:03:12 hrs.
   
  WARNING: Negative pressures at 117:10:23 hrs.
   
  WARNING: Negative pressures at 117:15:03 hrs.
   
  WARNING: Negative pressures at 117:15:57 hrs.
   
  WARNING: Negative pressures at 117:22:23 hrs.
   
  WARNING: Negative pressures at 117:26:57 hrs.
   
  WARNING: Negative pressures at 117:34:19 hrs.
   
  WARNING: Negative pressures at 117:38:53 hrs.
   
  WARNING: Negative pressures at 117:46:16 hrs.
   
  WARNING: Negative pressures at 117:50:50 hrs.
   
  WARNING: Negative pressures at 117:58:12 hrs.
   
  WARNING: Negative pressures at 118:00:00 hrs.
   
  WARNING: Negative pressures at 118:02:46 hrs.
   
  WARNING: Negative pressures at 118:10:37 hrs.
   
  WARNING: Negative pressures at 118:15:00 hrs.
   
  WARNING: Negative pressures at 118:22:51 hrs.
   
  WARNING: Negative pressures at 118:27:14 hrs.
   
  WARNING: Negative pressures at 118:35:05 hrs.
   
  WARNING: Negative pressures at 118:39:28 hrs.
   
  WARNING: Negative pressures at 118:47:19 hrs.
   
  WARNING: Negative pressures at 118:51:42 hrs.
   
  WARNING: Negative pressures at 118:59:33 hrs.
   
  WARNING: Negative pressures at 119:00:00 hrs.
   
  WARNING: Negative pressures at 119:03:53 hrs.
   
  WARNING: Negative pressures at 119:12:02 hrs.
   
  WARNING: Negative pressures at 119:16:19 hrs.
   
  WARNING: Negative pressures at 119:24:29 hrs.
   
  WARNING: Negative pressures at 119:28:46 hrs.
   
  WARNING: Negative pressures at 119:36:55 hrs.
   
  WARNING: Negative pressures at 119:41:11 hrs.
   
  WARNING: Negative pressures at 119:49:19 hrs.
   
  WARNING: Negative pressures at 119:53:36 hrs.
   
  WARNING: Negative pressures at 120:00:00 hrs.
   
  WARNING: Negative pressures at 120:01:51 hrs.
   
  WARNING: Negative pressures at 120:06:03 hrs.
   
  WARNING: Negative pressures at 120:14:29 hrs.
   
  WARNING: Negative pressures at 120:18:41 hrs.
   
  WARNING: Negative pressures at 120:27:08 hrs.
   
  WARNING: Negative pressures at 120:31:20 hrs.
   
  WARNING: Negative pressures at 120:39:47 hrs.
   
  WARNING: Negative pressures at 120:43:59 hrs.
   
  WARNING: Negative pressures at 120:52:26 hrs.
   
  WARNING: Negative pressures at 120:56:38 hrs.
   
  WARNING: Negative pressures at 121:00:00 hrs.
   
  WARNING: Negative pressures at 121:05:04 hrs.
   
  WARNING: Negative pressures at 121:09:17 hrs.
   
  WARNING: Negative pressures at 121:17:40 hrs.
   
  WARNING: Negative pressures at 121:21:53 hrs.
   
  WARNING: Negative pressures at 121:30:15 hrs.
   
  WARNING: Negative pressures at 121:34:28 hrs.
   
  WARNING: Negative pressures at 121:42:51 hrs.
   
  WARNING: Negative pressures at 121:47:04 hrs.
   
  WARNING: Negative pressures at 121:55:27 hrs.
   
  WARNING: Negative pressures at 121:59:40 hrs.
   
  WARNING: Negative pressures at 122:00:00 hrs.
   
  WARNING: Negative pressures at 122:07:57 hrs.
   
  WARNING: Negative pressures at 122:12:12 hrs.
   
  WARNING: Negative pressures at 122:20:29 hrs.
   
  WARNING: Negative pressures at 122:24:44 hrs.
   
  WARNING: Negative pressures at 122:33:01 hrs.
   
  WARNING: Negative pressures at 122:37:16 hrs.
   
  WARNING: Negative pressures at 122:45:33 hrs.
   
  WARNING: Negative pressures at 122:49:48 hrs.
   
  WARNING: Negative pressures at 122:58:05 hrs.
   
  WARNING: Negative pressures at 123:00:00 hrs.
   
  WARNING: Negative pressures at 123:02:26 hrs.
   
  WARNING: Negative pressures at 123:10:40 hrs.
   
  WARNING: Negative pressures at 123:14:55 hrs.
   
  WARNING: Negative pressures at 123:23:10 hrs.
   
  WARNING: Negative pressures at 123:27:25 hrs.
   
  WARNING: Negative pressures at 123:35:40 hrs.
   
  WARNING: Negative pressures at 123:39:55 hrs.
   
  WARNING: Negative pressures at 123:48:10 hrs.
   
  WARNING: Negative pressures at 123:52:25 hrs.
   
  WARNING: Negative pressures at 124:00:00 hrs.
   
  WARNING: Negative pressures at 124:00:40 hrs.
   
  WARNING: Negative pressures at 124:04:57 hrs.
   
  WARNING: Negative pressures at 124:13:06 hrs.
   
  WARNING: Negative pressures at 124:17:23 hrs.
   
  WARNING: Negative pressures at 124:25:32 hrs.
   
  WARNING: Negative pressures at 124:29:49 hrs.
   
  WARNING: Negative pressures at 124:37:58 hrs.
   
  WARNING: Negative pressures at 124:42:15 hrs.
   
  WARNING: Negative pressures at 124:50:24 hrs.
   
  WARNING: Negative pressures at 124:54:41 hrs.
   
  WARNING: Negative pressures at 125:00:00 hrs.
   
  WARNING: Negative pressures at 125:02:54 hrs.
   
  WARNING: Negative pressures at 125:07:08 hrs.
   
  WARNING: Negative pressures at 125:15:26 hrs.
   
  WARNING: Negative pressures at 125:19:41 hrs.
   
  WARNING: Negative pressures at 125:28:00 hrs.
   
  WARNING: Negative pressures at 125:32:15 hrs.
   
  WARNING: Negative pressures at 125:40:34 hrs.
   
  WARNING: Negative pressures at 125:44:48 hrs.
   
  WARNING: Negative pressures at 125:53:05 hrs.
   
  WARNING: Negative pressures at 125:57:19 hrs.
   
  WARNING: Negative pressures at 126:00:00 hrs.
   
  WARNING: Negative pressures at 126:04:51 hrs.
   
  WARNING: Negative pressures at 126:09:50 hrs.
   
  WARNING: Negative pressures at 126:16:59 hrs.
   
  WARNING: Negative pressures at 126:21:58 hrs.
   
  WARNING: Negative pressures at 126:29:07 hrs.
   
  WARNING: Negative pressures at 126:34:06 hrs.
   
  WARNING: Negative pressures at 126:41:15 hrs.
   
  WARNING: Negative pressures at 126:46:14 hrs.
   
  WARNING: Negative pressures at 126:53:23 hrs.
   
  WARNING: Negative pressures at 126:58:22 hrs.
   
  WARNING: Negative pressures at 127:00:00 hrs.
   
  WARNING: Negative pressures at 127:05:07 hrs.
   
  WARNING: Negative pressures at 127:10:28 hrs.
   
  WARNING: Negative pressures at 127:17:05 hrs.
   
  WARNING: Negative pressures at 127:22:26 hrs.
   
  WARNING: Negative pressures at 127:29:03 hrs.
   
  WARNING: Negative pressures at 127:34:24 hrs.
   
  WARNING: Negative pressures at 127:41:00 hrs.
   
  WARNING: Negative pressures at 127:46:21 hrs.
   
  WARNING: Negative pressures at 127:52:58 hrs.
   
  WARNING: Negative pressures at 127:58:19 hrs.
   
  WARNING: Negative pressures at 128:00:00 hrs.
   
  WARNING: Negative pressures at 128:04:47 hrs.
   
  WARNING: Negative pressures at 128:10:18 hrs.
   
  WARNING: Negative pressures at 128:16:42 hrs.
   
  WARNING: Negative pressures at 128:22:14 hrs.
   
  WARNING: Negative pressures at 128:28:39 hrs.
   
  WARNING: Negative pressures at 128:34:11 hrs.
   
  WARNING: Negative pressures at 128:40:35 hrs.
   
  WARNING: Negative pressures at 128:46:06 hrs.
   
  WARNING: Negative pressures at 128:52:30 hrs.
   
  WARNING: Negative pressures at 128:58:02 hrs.
   
  WARNING: Negative pressures at 129:00:00 hrs.
   
  WARNING: Negative pressures at 129:04:22 hrs.
   
  WARNING: Negative pressures at 129:10:00 hrs.
   
  WARNING: Negative pressures at 129:12:37 hrs.
   
  WARNING: Negative pressures at 129:16:17 hrs.
   
  WARNING: Negative pressures at 129:21:55 hrs.
   
  WARNING: Negative pressures at 129:24:44 hrs.
   
  WARNING: Negative pressures at 129:28:12 hrs.
   
  WARNING: Negative pressures at 129:33:50 hrs.
   
  WARNING: Negative pressures at 129:37:24 hrs.
   
  WARNING: Negative pressures at 129:40:07 hrs.
   
  WARNING: Negative pressures at 129:45:45 hrs.
   
  WARNING: Negative pressures at 129:50:12 hrs.
   
  WARNING: Negative pressures at 129:52:02 hrs.
   
  WARNING: Negative pressures at 129:57:41 hrs.
   
  WARNING: Negative pressures at 130:00:00 hrs.
   
  WARNING: Negative pressures at 130:01:15 hrs.
   
  WARNING: Negative pressures at 130:04:01 hrs.
   
  WARNING: Negative pressures at 130:07:06 hrs.
   
  WARNING: Negative pressures at 130:10:10 hrs.
   
  WARNING: Negative pressures at 130:15:50 hrs.
   
  WARNING: Negative pressures at 130:22:05 hrs.
   
  WARNING: Negative pressures at 130:25:14 hrs.
   
  WARNING: Negative pressures at 130:27:45 hrs.
   
  WARNING: Negative pressures at 130:34:05 hrs.
   
  WARNING: Negative pressures at 130:39:45 hrs.
   
  WARNING: Negative pressures at 130:46:05 hrs.
   
  WARNING: Negative pressures at 130:51:44 hrs.
   
  WARNING: Negative pressures at 130:58:04 hrs.
   
  WARNING: Negative pressures at 131:00:00 hrs.
   
  WARNING: Negative pressures at 131:03:44 hrs.
   
  WARNING: Negative pressures at 131:10:02 hrs.
   
  WARNING: Negative pressures at 131:15:42 hrs.
   
  WARNING: Negative pressures at 131:22:00 hrs.
   
  WARNING: Negative pressures at 131:27:40 hrs.
   
  WARNING: Negative pressures at 131:33:59 hrs.
   
  WARNING: Negative pressures at 131:39:39 hrs.
   
  WARNING: Negative pressures at 131:45:58 hrs.
   
  WARNING: Negative pressures at 131:51:38 hrs.
   
  WARNING: Negative pressures at 131:57:58 hrs.
   
  WARNING: Negative pressures at 132:00:00 hrs.
   
  WARNING: Negative pressures at 132:03:42 hrs.
   
  WARNING: Negative pressures at 132:09:56 hrs.
   
  WARNING: Negative pressures at 132:15:41 hrs.
   
  WARNING: Negative pressures at 132:21:55 hrs.
   
  WARNING: Negative pressures at 132:27:39 hrs.
   
  WARNING: Negative pressures at 132:33:53 hrs.
   
  WARNING: Negative pressures at 132:39:37 hrs.
   
  WARNING: Negative pressures at 132:45:51 hrs.
   
  WARNING: Negative pressures at 132:51:35 hrs.
   
  WARNING: Negative pressures at 132:57:49 hrs.
   
  WARNING: Negative pressures at 133:00:00 hrs.
   
  WARNING: Negative pressures at 133:01:31 hrs.
   
  WARNING: Negative pressures at 133:03:35 hrs.
   
  WARNING: Negative pressures at 133:09:45 hrs.
   
  WARNING: Negative pressures at 133:15:31 hrs.
   
  WARNING: Negative pressures at 133:21:41 hrs.
   
  WARNING: Negative pressures at 133:27:26 hrs.
   
  WARNING: Negative pressures at 133:33:36 hrs.
   
  WARNING: Negative pressures at 133:39:22 hrs.
   
  WARNING: Negative pressures at 133:45:33 hrs.
   
  WARNING: Negative pressures at 133:51:19 hrs.
   
  WARNING: Negative pressures at 133:52:28 hrs.
   
  WARNING: Negative pressures at 133:57:34 hrs.
   
  WARNING: Negative pressures at 134:00:00 hrs.
   
  WARNING: Negative pressures at 134:03:23 hrs.
   
  WARNING: Negative pressures at 134:09:21 hrs.
   
  WARNING: Negative pressures at 134:15:12 hrs.
   
  WARNING: Negative pressures at 134:21:11 hrs.
   
  WARNING: Negative pressures at 134:27:02 hrs.
   
  WARNING: Negative pressures at 134:33:00 hrs.
   
  WARNING: Negative pressures at 134:38:51 hrs.
   
  WARNING: Negative pressures at 134:44:50 hrs.
   
  WARNING: Negative pressures at 134:50:41 hrs.
   
  WARNING: Negative pressures at 134:56:40 hrs.
   
  WARNING: Negative pressures at 135:00:00 hrs.
   
  WARNING: Negative pressures at 135:02:32 hrs.
   
  WARNING: Negative pressures at 135:08:29 hrs.
   
  WARNING: Negative pressures at 135:14:22 hrs.
   
  WARNING: Negative pressures at 135:20:19 hrs.
   
  WARNING: Negative pressures at 135:26:12 hrs.
   
  WARNING: Negative pressures at 135:32:09 hrs.
   
  WARNING: Negative pressures at 135:38:02 hrs.
   
  WARNING: Negative pressures at 135:44:00 hrs.
   
  WARNING: Negative pressures at 135:49:53 hrs.
   
  WARNING: Negative pressures at 135:55:50 hrs.
   
  WARNING: Negative pressures at 136:00:00 hrs.
   
  WARNING: Negative pressures at 136:01:43 hrs.
   
  WARNING: Negative pressures at 136:07:40 hrs.
   
  WARNING: Negative pressures at 136:13:33 hrs.
   
  WARNING: Negative pressures at 136:19:29 hrs.
   
  WARNING: Negative pressures at 136:25:22 hrs.
   
  WARNING: Negative pressures at 136:31:19 hrs.
   
  WARNING: Negative pressures at 136:37:12 hrs.
   
  WARNING: Negative pressures at 136:43:09 hrs.
   
  WARNING: Negative pressures at 136:49:02 hrs.
   
  WARNING: Negative pressures at 136:54:59 hrs.
   
  WARNING: Negative pressures at 137:00:00 hrs.
   
  WARNING: Negative pressures at 137:00:53 hrs.
   
  WARNING: Negative pressures at 137:06:43 hrs.
   
  WARNING: Negative pressures at 137:12:41 hrs.
   
  WARNING: Negative pressures at 137:18:31 hrs.
   
  WARNING: Negative pressures at 137:24:29 hrs.
   
  WARNING: Negative pressures at 137:30:19 hrs.
   
  WARNING: Negative pressures at 137:36:17 hrs.
   
  WARNING: Negative pressures at 137:42:07 hrs.
   
  WARNING: Negative pressures at 137:48:05 hrs.
   
  WARNING: Negative pressures at 137:53:56 hrs.
   
  WARNING: Negative pressures at 137:59:55 hrs.
   
  WARNING: Negative pressures at 138:00:00 hrs.
   
  WARNING: Negative pressures at 138:05:42 hrs.
   
  WARNING: Negative pressures at 138:11:44 hrs.
   
  WARNING: Negative pressures at 138:17:30 hrs.
   
  WARNING: Negative pressures at 138:23:32 hrs.
   
  WARNING: Negative pressures at 138:29:18 hrs.
   
  WARNING: Negative pressures at 138:35:20 hrs.
   
  WARNING: Negative pressures at 138:41:06 hrs.
   
  WARNING: Negative pressures at 138:47:08 hrs.
   
  WARNING: Negative pressures at 138:52:54 hrs.
   
  WARNING: Negative pressures at 138:58:56 hrs.
   
  WARNING: Negative pressures at 139:00:00 hrs.
   
  WARNING: Negative pressures at 139:04:41 hrs.
   
  WARNING: Negative pressures at 139:10:53 hrs.
   
  WARNING: Negative pressures at 139:16:29 hrs.
   
  WARNING: Negative pressures at 139:22:42 hrs.
   
  WARNING: Negative pressures at 139:28:18 hrs.
   
  WARNING: Negative pressures at 139:34:32 hrs.
   
  WARNING: Negative pressures at 139:40:06 hrs.
   
  WARNING: Negative pressures at 139:46:21 hrs.
   
  WARNING: Negative pressures at 139:51:55 hrs.
   
  WARNING: Negative pressures at 139:58:11 hrs.
   
  WARNING: Negative pressures at 140:00:00 hrs.
   
  WARNING: Negative pressures at 140:03:40 hrs.
   
  WARNING: Negative pressures at 140:10:22 hrs.
   
  WARNING: Negative pressures at 140:15:34 hrs.
   
  WARNING: Negative pressures at 140:22:17 hrs.
   
  WARNING: Negative pressures at 140:27:29 hrs.
   
  WARNING: Negative pressures at 140:34:13 hrs.
   
  WARNING: Negative pressures at 140:37:25 hrs.
   
  WARNING: Negative pressures at 140:39:24 hrs.
   
  WARNING: Negative pressures at 140:39:29 hrs.
   
  WARNING: Negative pressures at 140:46:08 hrs.
   
  WARNING: Negative pressures at 140:46:25 hrs.
   
  WARNING: Negative pressures at 140:51:02 hrs.
   
  WARNING: Negative pressures at 140:51:15 hrs.
   
  WARNING: Negative pressures at 140:57:48 hrs.
   
  WARNING: Negative pressures at 140:58:05 hrs.
   
  WARNING: Negative pressures at 141:00:00 hrs.
   
  WARNING: Negative pressures at 141:00:05 hrs.
   
  WARNING: Negative pressures at 141:02:39 hrs.
   
  WARNING: Negative pressures at 141:10:00 hrs.
   
  WARNING: Negative pressures at 141:14:34 hrs.
   
  WARNING: Negative pressures at 141:21:57 hrs.
   
  WARNING: Negative pressures at 141:26:31 hrs.
   
  WARNING: Negative pressures at 141:33:53 hrs.
   
  WARNING: Negative pressures at 141:38:27 hrs.
   
  WARNING: Negative pressures at 141:45:49 hrs.
   
  WARNING: Negative pressures at 141:50:23 hrs.
   
  WARNING: Negative pressures at 141:57:45 hrs.
   
  WARNING: Negative pressures at 142:00:00 hrs.
   
  WARNING: Negative pressures at 142:02:20 hrs.
   
  WARNING: Negative pressures at 142:10:10 hrs.
   
  WARNING: Negative pressures at 142:14:32 hrs.
   
  WARNING: Negative pressures at 142:22:21 hrs.
   
  WARNING: Negative pressures at 142:26:43 hrs.
   
  WARNING: Negative pressures at 142:34:33 hrs.
   
  WARNING: Negative pressures at 142:38:56 hrs.
   
  WARNING: Negative pressures at 142:46:47 hrs.
   
  WARNING: Negative pressures at 142:51:10 hrs.
   
  WARNING: Negative pressures at 142:59:01 hrs.
   
  WARNING: Negative pressures at 143:00:00 hrs.
   
  WARNING: Negative pressures at 143:03:24 hrs.
   
  WARNING: Negative pressures at 143:11:33 hrs.
   
  WARNING: Negative pressures at 143:15:49 hrs.
   
  WARNING: Negative pressures at 143:23:57 hrs.
   
  WARNING: Negative pressures at 143:28:14 hrs.
   
  WARNING: Negative pressures at 143:36:24 hrs.
   
  WARNING: Negative pressures at 143:40:41 hrs.
   
  WARNING: Negative pressures at 143:48:50 hrs.
   
  WARNING: Negative pressures at 143:53:06 hrs.
   
  WARNING: Negative pressures at 144:00:00 hrs.
   
  WARNING: Negative pressures at 144:01:17 hrs.
   
  WARNING: Negative pressures at 144:05:29 hrs.
   
  WARNING: Negative pressures at 144:13:56 hrs.
   
  WARNING: Negative pressures at 144:18:08 hrs.
   
  WARNING: Negative pressures at 144:26:35 hrs.
   
  WARNING: Negative pressures at 144:30:47 hrs.
   
  WARNING: Negative pressures at 144:39:14 hrs.
   
  WARNING: Negative pressures at 144:43:26 hrs.
   
  WARNING: Negative pressures at 144:51:53 hrs.
   
  WARNING: Negative pressures at 144:56:05 hrs.
   
  WARNING: Negative pressures at 145:00:00 hrs.
   
  WARNING: Negative pressures at 145:04:31 hrs.
   
  WARNING: Negative pressures at 145:08:44 hrs.
   
  WARNING: Negative pressures at 145:17:07 hrs.
   
  WARNING: Negative pressures at 145:21:20 hrs.
   
  WARNING: Negative pressures at 145:29:43 hrs.
   
  WARNING: Negative pressures at 145:32:46 hrs.
   
  WARNING: Negative pressures at 145:34:02 hrs.
   
  WARNING: Negative pressures at 145:42:17 hrs.
   
  WARNING: Negative pressures at 145:46:33 hrs.
   
  WARNING: Negative pressures at 145:54:47 hrs.
   
  WARNING: Negative pressures at 145:59:03 hrs.
   
  WARNING: Negative pressures at 146:00:00 hrs.
   
  WARNING: Negative pressures at 146:07:14 hrs.
   
  WARNING: Negative pressures at 146:11:32 hrs.
   
  WARNING: Negative pressures at 146:19:41 hrs.
   
  WARNING: Negative pressures at 146:23:59 hrs.
   
  WARNING: Negative pressures at 146:32:09 hrs.
   
  WARNING: Negative pressures at 146:36:27 hrs.
   
  WARNING: Negative pressures at 146:44:37 hrs.
   
  WARNING: Negative pressures at 146:48:55 hrs.
   
  WARNING: Negative pressures at 146:57:05 hrs.
   
  WARNING: Negative pressures at 147:00:00 hrs.
   
  WARNING: Negative pressures at 147:01:29 hrs.
   
  WARNING: Negative pressures at 147:09:37 hrs.
   
  WARNING: Negative pressures at 147:13:55 hrs.
   
  WARNING: Negative pressures at 147:22:03 hrs.
   
  WARNING: Negative pressures at 147:26:21 hrs.
   
  WARNING: Negative pressures at 147:34:29 hrs.
   
  WARNING: Negative pressures at 147:38:47 hrs.
   
  WARNING: Negative pressures at 147:46:55 hrs.
   
  WARNING: Negative pressures at 147:51:13 hrs.
   
  WARNING: Negative pressures at 147:54:22 hrs.
   
  WARNING: Negative pressures at 147:59:26 hrs.
   
  WARNING: Negative pressures at 148:00:00 hrs.
   
  WARNING: Negative pressures at 148:03:46 hrs.
   
  WARNING: Negative pressures at 148:11:56 hrs.
   
  WARNING: Negative pressures at 148:16:13 hrs.
   
  WARNING: Negative pressures at 148:24:22 hrs.
   
  WARNING: Negative pressures at 148:28:39 hrs.
   
  WARNING: Negative pressures at 148:36:48 hrs.
   
  WARNING: Negative pressures at 148:41:05 hrs.
   
  WARNING: Negative pressures at 148:49:14 hrs.
   
  WARNING: Negative pressures at 148:53:31 hrs.
   
  WARNING: Negative pressures at 149:00:00 hrs.
   
  WARNING: Negative pressures at 149:01:42 hrs.
   
  WARNING: Negative pressures at 149:05:56 hrs.
   
  WARNING: Negative pressures at 149:14:13 hrs.
   
  WARNING: Negative pressures at 149:18:27 hrs.
   
  WARNING: Negative pressures at 149:26:44 hrs.
   
  WARNING: Negative pressures at 149:30:58 hrs.
   
  WARNING: Negative pressures at 149:39:15 hrs.
   
  WARNING: Negative pressures at 149:43:29 hrs.
   
  WARNING: Negative pressures at 149:51:47 hrs.
   
  WARNING: Negative pressures at 149:56:02 hrs.
   
  WARNING: Negative pressures at 150:00:00 hrs.
   
  WARNING: Negative pressures at 150:03:46 hrs.
   
  WARNING: Negative pressures at 150:08:45 hrs.
   
  WARNING: Negative pressures at 150:15:54 hrs.
   
  WARNING: Negative pressures at 150:20:53 hrs.
   
  WARNING: Negative pressures at 150:28:02 hrs.
   
  WARNING: Negative pressures at 150:33:01 hrs.
   
  WARNING: Negative pressures at 150:40:10 hrs.
   
  WARNING: Negative pressures at 150:45:09 hrs.
   
  WARNING: Negative pressures at 150:52:18 hrs.
   
  WARNING: Negative pressures at 150:57:17 hrs.
   
  WARNING: Negative pressures at 151:00:00 hrs.
   
  WARNING: Negative pressures at 151:04:06 hrs.
   
  WARNING: Negative pressures at 151:09:27 hrs.
   
  WARNING: Negative pressures at 151:16:04 hrs.
   
  WARNING: Negative pressures at 151:21:25 hrs.
   
  WARNING: Negative pressures at 151:28:02 hrs.
   
  WARNING: Negative pressures at 151:33:23 hrs.
   
  WARNING: Negative pressures at 151:40:00 hrs.
   
  WARNING: Negative pressures at 151:45:21 hrs.
   
  WARNING: Negative pressures at 151:51:57 hrs.
   
  WARNING: Negative pressures at 151:57:18 hrs.
   
  WARNING: Negative pressures at 152:00:00 hrs.
   
  WARNING: Negative pressures at 152:03:48 hrs.
   
  WARNING: Negative pressures at 152:09:19 hrs.
   
  WARNING: Negative pressures at 152:15:43 hrs.
   
  WARNING: Negative pressures at 152:21:14 hrs.
   
  WARNING: Negative pressures at 152:27:38 hrs.
   
  WARNING: Negative pressures at 152:33:10 hrs.
   
  WARNING: Negative pressures at 152:39:35 hrs.
   
  WARNING: Negative pressures at 152:45:07 hrs.
   
  WARNING: Negative pressures at 152:51:31 hrs.
   
  WARNING: Negative pressures at 152:57:03 hrs.
   
  WARNING: Negative pressures at 153:00:00 hrs.
   
  WARNING: Negative pressures at 153:03:24 hrs.
   
  WARNING: Negative pressures at 153:09:02 hrs.
   
  WARNING: Negative pressures at 153:11:07 hrs.
   
  WARNING: Negative pressures at 153:15:20 hrs.
   
  WARNING: Negative pressures at 153:20:59 hrs.
   
  WARNING: Negative pressures at 153:23:28 hrs.
   
  WARNING: Negative pressures at 153:27:17 hrs.
   
  WARNING: Negative pressures at 153:32:56 hrs.
   
  WARNING: Negative pressures at 153:36:07 hrs.
   
  WARNING: Negative pressures at 153:39:14 hrs.
   
  WARNING: Negative pressures at 153:44:53 hrs.
   
  WARNING: Negative pressures at 153:48:54 hrs.
   
  WARNING: Negative pressures at 153:51:11 hrs.
   
  WARNING: Negative pressures at 153:54:16 hrs.
   
  WARNING: Negative pressures at 153:57:23 hrs.
   
  WARNING: Negative pressures at 154:00:00 hrs.
   
  WARNING: Negative pressures at 154:01:06 hrs.
   
  WARNING: Negative pressures at 154:03:02 hrs.
   
  WARNING: Negative pressures at 154:03:44 hrs.
   
  WARNING: Negative pressures at 154:09:23 hrs.
   
  WARNING: Negative pressures at 154:13:48 hrs.
   
  WARNING: Negative pressures at 154:15:04 hrs.
   
  WARNING: Negative pressures at 154:21:20 hrs.
   
  WARNING: Negative pressures at 154:27:00 hrs.
   
  WARNING: Negative pressures at 154:33:16 hrs.
   
  WARNING: Negative pressures at 154:38:56 hrs.
   
  WARNING: Negative pressures at 154:45:12 hrs.
   
  WARNING: Negative pressures at 154:50:51 hrs.
   
  WARNING: Negative pressures at 154:57:07 hrs.
   
  WARNING: Negative pressures at 155:00:00 hrs.
   
  WARNING: Negative pressures at 155:02:48 hrs.
   
  WARNING: Negative pressures at 155:09:03 hrs.
   
  WARNING: Negative pressures at 155:14:44 hrs.
   
  WARNING: Negative pressures at 155:20:59 hrs.
   
  WARNING: Negative pressures at 155:26:40 hrs.
   
  WARNING: Negative pressures at 155:32:55 hrs.
   
  WARNING: Negative pressures at 155:38:35 hrs.
   
  WARNING: Negative pressures at 155:44:50 hrs.
   
  WARNING: Negative pressures at 155:50:30 hrs.
   
  WARNING: Negative pressures at 155:56:45 hrs.
   
  WARNING: Negative pressures at 156:00:00 hrs.
   
  WARNING: Negative pressures at 156:02:27 hrs.
   
  WARNING: Negative pressures at 156:08:34 hrs.
   
  WARNING: Negative pressures at 156:14:19 hrs.
   
  WARNING: Negative pressures at 156:20:26 hrs.
   
  WARNING: Negative pressures at 156:26:10 hrs.
   
  WARNING: Negative pressures at 156:32:17 hrs.
   
  WARNING: Negative pressures at 156:38:02 hrs.
   
  WARNING: Negative pressures at 156:44:10 hrs.
   
  WARNING: Negative pressures at 156:49:54 hrs.
   
  WARNING: Negative pressures at 156:56:01 hrs.
   
  WARNING: Negative pressures at 157:00:00 hrs.
   
  WARNING: Negative pressures at 157:01:46 hrs.
   
  WARNING: Negative pressures at 157:07:51 hrs.
   
  WARNING: Negative pressures at 157:13:38 hrs.
   
  WARNING: Negative pressures at 157:19:43 hrs.
   
  WARNING: Negative pressures at 157:25:29 hrs.
   
  WARNING: Negative pressures at 157:31:34 hrs.
   
  WARNING: Negative pressures at 157:37:20 hrs.
   
  WARNING: Negative pressures at 157:43:25 hrs.
   
  WARNING: Negative pressures at 157:46:13 hrs.
   
  WARNING: Negative pressures at 157:49:11 hrs.
   
  WARNING: Negative pressures at 157:55:21 hrs.
   
  WARNING: Negative pressures at 158:00:00 hrs.
   
  WARNING: Negative pressures at 158:01:08 hrs.
   
  WARNING: Negative pressures at 158:07:10 hrs.
   
  WARNING: Negative pressures at 158:13:01 hrs.
   
  WARNING: Negative pressures at 158:19:04 hrs.
   
  WARNING: Negative pressures at 158:24:56 hrs.
   
  WARNING: Negative pressures at 158:30:59 hrs.
   
  WARNING: Negative pressures at 158:36:50 hrs.
   
  WARNING: Negative pressures at 158:42:53 hrs.
   
  WARNING: Negative pressures at 158:48:45 hrs.
   
  WARNING: Negative pressures at 158:54:49 hrs.
   
  WARNING: Negative pressures at 159:00:00 hrs.
   
  WARNING: Negative pressures at 159:00:41 hrs.
   
  WARNING: Negative pressures at 159:06:42 hrs.
   
  WARNING: Negative pressures at 159:12:35 hrs.
   
  WARNING: Negative pressures at 159:18:37 hrs.
   
  WARNING: Negative pressures at 159:24:31 hrs.
   
  WARNING: Negative pressures at 159:30:33 hrs.
   
  WARNING: Negative pressures at 159:36:26 hrs.
   
  WARNING: Negative pressures at 159:42:28 hrs.
   
  WARNING: Negative pressures at 159:48:21 hrs.
   
  WARNING: Negative pressures at 159:54:22 hrs.
   
  WARNING: Negative pressures at 160:00:00 hrs.
   
  WARNING: Negative pressures at 160:00:14 hrs.
   
  WARNING: Negative pressures at 160:06:15 hrs.
   
  WARNING: Negative pressures at 160:12:09 hrs.
   
  WARNING: Negative pressures at 160:18:11 hrs.
   
  WARNING: Negative pressures at 160:24:05 hrs.
   
  WARNING: Negative pressures at 160:30:07 hrs.
   
  WARNING: Negative pressures at 160:36:01 hrs.
   
  WARNING: Negative pressures at 160:42:03 hrs.
   
  WARNING: Negative pressures at 160:47:56 hrs.
   
  WARNING: Negative pressures at 160:53:57 hrs.
   
  WARNING: Negative pressures at 160:59:50 hrs.
   
  WARNING: Negative pressures at 161:00:00 hrs.
   
  WARNING: Negative pressures at 161:05:36 hrs.
   
  WARNING: Negative pressures at 161:05:48 hrs.
   
  WARNING: Negative pressures at 161:11:47 hrs.
   
  WARNING: Negative pressures at 161:17:38 hrs.
   
  WARNING: Negative pressures at 161:23:37 hrs.
   
  WARNING: Negative pressures at 161:29:28 hrs.
   
  WARNING: Negative pressures at 161:35:27 hrs.
   
  WARNING: Negative pressures at 161:41:18 hrs.
   
  WARNING: Negative pressures at 161:47:17 hrs.
   
  WARNING: Negative pressures at 161:53:08 hrs.
   
  WARNING: Negative pressures at 161:59:07 hrs.
   
  WARNING: Negative pressures at 162:00:00 hrs.
   
  WARNING: Negative pressures at 162:05:00 hrs.
   
  WARNING: Negative pressures at 162:11:02 hrs.
   
  WARNING: Negative pressures at 162:16:48 hrs.
   
  WARNING: Negative pressures at 162:22:50 hrs.
   
  WARNING: Negative pressures at 162:28:36 hrs.
   
  WARNING: Negative pressures at 162:34:38 hrs.
   
  WARNING: Negative pressures at 162:40:24 hrs.
   
  WARNING: Negative pressures at 162:46:26 hrs.
   
  WARNING: Negative pressures at 162:52:12 hrs.
   
  WARNING: Negative pressures at 162:58:14 hrs.
   
  WARNING: Negative pressures at 163:00:00 hrs.
   
  WARNING: Negative pressures at 163:04:04 hrs.
   
  WARNING: Negative pressures at 163:10:17 hrs.
   
  WARNING: Negative pressures at 163:15:53 hrs.
   
  WARNING: Negative pressures at 163:22:06 hrs.
   
  WARNING: Negative pressures at 163:27:42 hrs.
   
  WARNING: Negative pressures at 163:33:56 hrs.
   
  WARNING: Negative pressures at 163:39:30 hrs.
   
  WARNING: Negative pressures at 163:45:44 hrs.
   
  WARNING: Negative pressures at 163:51:18 hrs.
   
  WARNING: Negative pressures at 163:57:34 hrs.
   
  WARNING: Negative pressures at 164:00:00 hrs.
   
  WARNING: Negative pressures at 164:03:06 hrs.
   
  WARNING: Negative pressures at 164:09:48 hrs.
   
  WARNING: Negative pressures at 164:15:00 hrs.
   
  WARNING: Negative pressures at 164:21:43 hrs.
   
  WARNING: Negative pressures at 164:26:55 hrs.
   
  WARNING: Negative pressures at 164:33:39 hrs.
   
  WARNING: Negative pressures at 164:37:20 hrs.
   
  WARNING: Negative pressures at 164:38:52 hrs.
   
  WARNING: Negative pressures at 164:38:56 hrs.
   
  WARNING: Negative pressures at 164:45:38 hrs.
   
  WARNING: Negative pressures at 164:45:56 hrs.
   
  WARNING: Negative pressures at 164:50:32 hrs.
   
  WARNING: Negative pressures at 164:50:44 hrs.
   
  WARNING: Negative pressures at 164:57:17 hrs.
   
  WARNING: Negative pressures at 164:57:34 hrs.
   
  WARNING: Negative pressures at 165:00:00 hrs.
   
  WARNING: Negative pressures at 165:00:06 hrs.
   
  WARNING: Negative pressures at 165:02:11 hrs.
   
  WARNING: Negative pressures at 165:09:34 hrs.
   
  WARNING: Negative pressures at 165:14:08 hrs.
   
  WARNING: Negative pressures at 165:21:30 hrs.
   
  WARNING: Negative pressures at 165:26:04 hrs.
   
  WARNING: Negative pressures at 165:33:26 hrs.
   
  WARNING: Negative pressures at 165:38:00 hrs.
   
  WARNING: Negative pressures at 165:45:22 hrs.
   
  WARNING: Negative pressures at 165:49:56 hrs.
   
  WARNING: Negative pressures at 165:57:19 hrs.
   
  WARNING: Negative pressures at 166:00:00 hrs.
   
  WARNING: Negative pressures at 166:01:55 hrs.
   
  WARNING: Negative pressures at 166:09:45 hrs.
   
  WARNING: Negative pressures at 166:14:08 hrs.
   
  WARNING: Negative pressures at 166:21:59 hrs.
   
  WARNING: Negative pressures at 166:26:22 hrs.
   
  WARNING: Negative pressures at 166:34:13 hrs.
   
  WARNING: Negative pressures at 166:38:36 hrs.
   
  WARNING: Negative pressures at 166:46:27 hrs.
   
  WARNING: Negative pressures at 166:50:50 hrs.
   
  WARNING: Negative pressures at 166:58:41 hrs.
   
  WARNING: Negative pressures at 167:00:00 hrs.
   
  WARNING: Negative pressures at 167:03:05 hrs.
   
  WARNING: Negative pressures at 167:11:14 hrs.
   
  WARNING: Negative pressures at 167:15:31 hrs.
   
  WARNING: Negative pressures at 167:23:40 hrs.
   
  WARNING: Negative pressures at 167:27:57 hrs.
   
  WARNING: Negative pressures at 167:36:07 hrs.
   
  WARNING: Negative pressures at 167:40:24 hrs.
   
  WARNING: Negative pressures at 167:48:34 hrs.
   
  WARNING: Negative pressures at 167:52:51 hrs.
   
  WARNING: Negative pressures at 168:00:00 hrs.
   
  Analysis ended Sun Feb 14 02:53:21 2021
