  Page 1                                    Thu Feb 04 16:30:43 2021

  ******************************************************************
  *                           E P A N E T                          *
  *                   Hydraulic and Water Quality                  *
  *                   Analysis for Pipe Networks                   *
  *                         Version 2.2                            *
  ******************************************************************
  
  Analysis begun Thu Feb 04 16:30:43 2021

  Analysis ended Thu Feb 04 16:30:44 2021
